# File generated by Flopy version 3.8.0 on 08/23/2024 at 19:20:36.
BEGIN options
END options

BEGIN dimensions
  MAXBOUND  169
END dimensions

BEGIN period  1
  1 25 73 1.11111104E+00 4.91407626E+03
  1 25 72 2.34967133E+00 5.10919184E+03
  1 25 71 3.69474810E+00 5.37087937E+03
  1 25 70 5.18232083E+00 5.71194368E+03
  1 25 69 8.89151132E+00 1.19200002E+03
  1 24 69 7.19789803E+00 4.82986991E+03
  1 24 68 7.59339857E+00 6.08030176E+03
  1 24 67 8.84035802E+00 6.26609979E+03
  1 24 66 1.15886066E+01 5.91518618E+03
  1 23 66 1.28425014E+01 4.92512422E+02
  1 23 65 1.31651700E+01 6.54047760E+03
  1 23 64 1.44117584E+01 6.68641452E+03
  1 23 63 1.57565975E+01 6.84783704E+03
  1 23 62 1.71235416E+01 7.04434551E+03
  1 23 61 1.84929438E+01 7.24018295E+03
  1 23 60 1.98745708E+01 7.44954093E+03
  1 23 59 2.13099222E+01 5.97076381E+03
  1 24 59 2.24328179E+01 1.72173497E+03
  1 24 58 2.31006970E+01 7.83610124E+03
  1 24 57 2.44099298E+01 8.03095988E+03
  1 24 56 2.57553139E+01 8.22418947E+03
  1 24 55 2.71196237E+01 8.40277778E+03
  1 24 54 2.84732141E+01 8.59739912E+03
  1 24 53 2.98378768E+01 8.79582742E+03
  1 24 52 3.11944103E+01 9.00491390E+03
  1 24 51 3.25605564E+01 9.21958502E+03
  1 24 50 3.39907513E+01 9.44304157E+03
  1 24 49 3.61850929E+01 6.88963272E+02
  1 23 49 3.36988201E+01 8.90834726E+03
  1 23 48 3.51100683E+01 9.76388889E+03
  1 23 47 3.65502605E+01 8.07431506E+03
  1 24 47 3.85517063E+01 1.92810625E+03
  1 24 46 3.91115322E+01 1.02508528E+04
  1 24 45 4.02776241E+01 1.04561075E+04
  1 24 44 4.04166679E+01 1.06525981E+04
  1 24 43 4.19184561E+01 1.07616038E+04
  1 24 42 4.33158350E+01 1.09548187E+04
  1 24 41 4.47220898E+01 1.11355331E+04
  1 24 40 4.61215992E+01 1.13322590E+04
  1 24 39 4.75356960E+01 1.15568701E+04
  1 24 38 4.89329462E+01 1.17520404E+04
  1 24 37 5.04307203E+01 1.20785593E+04
  1 24 36 5.24452400E+01 5.54777730E+03
  1 25 36 5.18694696E+01 6.74385773E+03
  1 25 35 5.30213499E+01 1.24122556E+04
  1 25 34 5.44104576E+01 1.24960960E+04
  1 25 33 5.58148127E+01 1.26906959E+04
  1 25 32 5.72298203E+01 1.30011546E+04
  1 25 31 5.90280104E+01 1.32069761E+04
  1 25 30 6.05724945E+01 1.93980042E+03
  1 24 30 6.01881399E+01 1.19016178E+04
  1 24 29 6.13540211E+01 1.47162375E+04
  1 24 28 6.26388893E+01 6.53775127E+03
  1 23 28 6.27853308E+01 1.30822440E+04
  1 23 27 6.42344952E+01 5.09272294E+03
  1 22 27 6.40277777E+01 1.75396458E+04
  1 21 27 6.53291264E+01 4.67056764E+02
  1 21 26 6.54837914E+01 1.83952943E+04
  1 20 26 6.66131191E+01 3.43938758E+03
  1 20 25 6.69276600E+01 1.34229075E+04
  1 19 25 6.76287384E+01 1.26141476E+04
  1 19 24 6.85399284E+01 6.86556974E+03
  1 18 24 6.89221706E+01 1.05603335E+04
  1 18 23 6.96840477E+01 1.63785459E+04
  1 17 23 7.17806072E+01 8.23602484E+02
  1 17 22 7.09722252E+01 1.65857496E+04
  1 17 21 7.25047474E+01 1.52161748E+04
  1 17 20 7.39152241E+01 1.54132170E+04
  1 17 19 7.58911095E+01 1.47464046E+04
  1 16 19 7.71446285E+01 8.60307912E+02
  1 16 18 7.79174767E+01 1.58037315E+04
  1 16 17 7.83503304E+01 1.60007504E+04
  1 16 16 7.96684666E+01 1.60775608E+04
  1 16 15 8.09684887E+01 1.62684078E+04
  1 16 14 8.22782803E+01 1.65261971E+04
  1 16 13 8.42766705E+01 1.72563274E+04
  1 16 12 8.65487881E+01 2.31790401E+03
  1 15 12 8.48611107E+01 1.83550800E+04
  1 15 11 8.77157822E+01 9.22123034E+03
  1 14 11 8.81208248E+01 8.72848279E+03
  1 24 29 6.13540211E+01 1.50751120E+03
  1 24 28 6.26388893E+01 1.48484869E+04
  1 24 27 6.41941757E+01 3.13005261E+03
  1 25 27 6.47252731E+01 1.09661284E+04
  1 25 26 6.57101822E+01 1.41390718E+04
  1 25 25 6.69805965E+01 1.43442386E+04
  1 25 24 6.83365421E+01 1.45751554E+04
  1 25 23 6.95833321E+01 1.50021771E+04
  1 25 22 7.14188538E+01 1.52325908E+04
  1 25 21 7.32110233E+01 4.15575695E+02
  1 26 21 7.29351978E+01 1.50246598E+04
  1 26 20 7.37499981E+01 1.58774059E+04
  1 26 19 7.53572388E+01 1.61105148E+04
  1 26 18 7.73743706E+01 8.07500725E+03
  1 27 18 7.72345581E+01 8.32973934E+03
  1 27 17 7.80296040E+01 1.70653796E+04
  1 27 16 7.97872353E+01 1.46787222E+04
  1 28 16 8.02680855E+01 3.49218937E+03
  1 28 15 8.08374805E+01 1.84365859E+04
  1 28 14 8.27825260E+01 1.20600349E+04
  1 29 14 8.28897972E+01 6.30319936E+03
  1 29 13 8.35966682E+01 1.80799014E+04
  1 29 12 8.54896145E+01 1.78557719E+04
  1 29 11 8.85248680E+01 1.84111938E+03
  1 30 11 8.77461166E+01 8.36833513E+03
  1 24 43 4.19184561E+01 4.13605589E+03
  1 24 42 4.33158350E+01 6.32653131E+03
  1 25 42 4.44797831E+01 5.77841259E+03
  1 25 41 4.45833321E+01 1.28094361E+04
  1 26 41 4.62381964E+01 3.73853106E+03
  1 26 40 4.60845833E+01 9.26117166E+03
  1 27 40 4.67752981E+01 9.25473132E+03
  1 27 39 4.75322790E+01 7.21208191E+03
  1 28 39 4.91204996E+01 7.20000245E+03
  1 28 38 4.87500000E+01 1.31916122E+04
  1 28 37 5.04458857E+01 4.40688506E+03
  1 29 37 5.13876495E+01 9.32922992E+03
  1 29 36 5.16414337E+01 1.38128024E+04
  1 29 35 5.34287281E+01 1.51419082E+03
  1 30 35 5.35265570E+01 1.24163647E+04
  1 30 34 5.44117346E+01 1.37159954E+04
  1 30 33 5.61991940E+01 4.21832485E+03
  1 31 33 5.72079639E+01 8.90535246E+03
  1 31 32 5.74485884E+01 1.39239648E+04
  1 31 31 5.88082714E+01 1.19443349E+04
  1 32 31 6.00176859E+01 2.82110396E+03
  1 32 30 6.00741796E+01 1.51095629E+04
  1 32 29 6.15561934E+01 9.42944891E+03
  1 33 29 6.22535458E+01 6.17396526E+03
  1 33 28 6.28495359E+01 1.54260463E+04
  1 33 27 6.47962837E+01 8.37664576E+03
  1 34 27 6.51443119E+01 6.77661230E+03
  1 34 26 6.56389351E+01 1.20255981E+04
  1 24 55 2.71196237E+01 2.10065392E+03
  1 23 55 2.61826539E+01 5.83514979E+03
  1 23 54 2.65358334E+01 9.61198665E+03
  1 23 53 2.79966302E+01 3.16319136E+03
  1 22 53 2.81929421E+01 7.57293166E+03
  1 22 52 2.94119515E+01 7.38658457E+03
  1 21 52 3.07704816E+01 4.04992023E+03
  1 21 51 3.07774210E+01 9.94918352E+03
  1 20 51 3.33868265E+01 2.15497591E+03
  1 20 50 3.26728621E+01 1.05731415E+04
  1 20 49 3.36236153E+01 9.99351418E+03
  1 19 49 3.62703419E+01 1.95796142E+02
  1 19 48 3.65003595E+01 1.00833810E+04
  1 19 47 3.75113335E+01 1.00507933E+04
  1 19 46 3.76388893E+01 1.02483329E+04
  1 19 45 3.91268950E+01 1.04856202E+04
  1 19 44 4.05373220E+01 1.06826654E+04
  1 19 43 4.23746367E+01 6.87334740E+03
  1 18 43 4.33945284E+01 4.45633879E+03
  1 18 42 4.35885448E+01 1.18293901E+04
  1 18 41 4.49478970E+01 1.16633806E+04
  1 17 41 4.63913298E+01 5.23538019E+02
  1 17 40 4.65960197E+01 1.24356129E+04
  1 17 39 4.74990673E+01 1.26492308E+04
  1 17 38 4.99613333E+01 1.99940297E+03
  1 16 38 4.88892059E+01 1.50353151E+04
  1 15 38 5.02432137E+01 2.09674654E+03
  1 15 37 5.05632334E+01 1.15191332E+04
  1 14 37 5.01388893E+01 1.33624689E+04
  1 13 37 5.22115917E+01 5.84296777E+02
  1 13 36 5.20882530E+01 1.30833480E+04
  1 12 36 5.22646160E+01 8.75474601E+03
  1 12 35 5.40916033E+01 8.05857100E+03
  1 11 35 5.38353901E+01 1.27059442E+04
  1 11 34 5.73917055E+01 1.87856907E+03
  1 10 34 5.57697086E+01 1.20263534E+04
END period  1

