# File generated by Flopy version 3.8.0 on 08/23/2024 at 19:20:36.
BEGIN options
  auxiliary  depth
  AUXDEPTHNAME  depth
END options

BEGIN dimensions
  MAXBOUND  1919
END dimensions

BEGIN period  1
  1 2 23 9.53710175E+01 2.50000000E+06 1.00000000E+00
  1 2 24 9.45906067E+01 2.50000000E+06 1.00000000E+00
  1 3 16 1.00119522E+02 2.50000000E+06 1.00000000E+00
  1 3 17 9.96467667E+01 2.50000000E+06 1.00000000E+00
  1 3 18 9.91056557E+01 2.50000000E+06 1.00000000E+00
  1 3 19 9.86162796E+01 2.50000000E+06 1.00000000E+00
  1 3 20 9.79271908E+01 2.50000000E+06 1.00000000E+00
  1 3 21 9.71303329E+01 2.50000000E+06 1.00000000E+00
  1 3 22 9.63305244E+01 2.50000000E+06 1.00000000E+00
  1 3 23 9.54070396E+01 2.50000000E+06 1.00000000E+00
  1 3 24 9.43699646E+01 2.50000000E+06 1.00000000E+00
  1 3 25 9.30675983E+01 2.50000000E+06 1.00000000E+00
  1 3 26 9.15583439E+01 2.50000000E+06 1.00000000E+00
  1 3 27 9.01669006E+01 2.50000000E+06 1.00000000E+00
  1 3 28 8.87470594E+01 2.50000000E+06 1.00000000E+00
  1 3 29 8.65312500E+01 2.50000000E+06 1.00000000E+00
  1 4 13 1.00735939E+02 2.50000000E+06 1.00000000E+00
  1 4 14 1.00604866E+02 2.50000000E+06 1.00000000E+00
  1 4 15 1.00375830E+02 2.50000000E+06 1.00000000E+00
  1 4 16 1.00048948E+02 2.50000000E+06 1.00000000E+00
  1 4 17 9.96254997E+01 2.50000000E+06 1.00000000E+00
  1 4 18 9.90967255E+01 2.50000000E+06 1.00000000E+00
  1 4 19 9.84974766E+01 2.50000000E+06 1.00000000E+00
  1 4 20 9.77961216E+01 2.50000000E+06 1.00000000E+00
  1 4 21 9.69997959E+01 2.50000000E+06 1.00000000E+00
  1 4 22 9.61243343E+01 2.50000000E+06 1.00000000E+00
  1 4 23 9.51364880E+01 2.50000000E+06 1.00000000E+00
  1 4 24 9.40179920E+01 2.50000000E+06 1.00000000E+00
  1 4 25 9.27165985E+01 2.50000000E+06 1.00000000E+00
  1 4 26 9.12520542E+01 2.50000000E+06 1.00000000E+00
  1 4 27 8.96672421E+01 2.50000000E+06 1.00000000E+00
  1 4 28 8.78915634E+01 2.50000000E+06 1.00000000E+00
  1 4 29 8.59680462E+01 2.50000000E+06 1.00000000E+00
  1 4 30 8.37530479E+01 2.50000000E+06 1.00000000E+00
  1 4 31 8.15406284E+01 2.50000000E+06 1.00000000E+00
  1 4 32 7.98720876E+01 2.50000000E+06 1.00000000E+00
  1 4 33 7.93407462E+01 2.50000000E+06 1.00000000E+00
  1 5 11 1.00769859E+02 2.50000000E+06 1.00000000E+00
  1 5 12 1.00772095E+02 2.50000000E+06 1.00000000E+00
  1 5 13 1.00685001E+02 2.50000000E+06 1.00000000E+00
  1 5 14 1.00487999E+02 2.50000000E+06 1.00000000E+00
  1 5 15 1.00202631E+02 2.50000000E+06 1.00000000E+00
  1 5 16 9.98247147E+01 2.50000000E+06 1.00000000E+00
  1 5 17 9.93611622E+01 2.50000000E+06 1.00000000E+00
  1 5 18 9.88076096E+01 2.50000000E+06 1.00000000E+00
  1 5 19 9.81721802E+01 2.50000000E+06 1.00000000E+00
  1 5 20 9.74458714E+01 2.50000000E+06 1.00000000E+00
  1 5 21 9.66279869E+01 2.50000000E+06 1.00000000E+00
  1 5 22 9.57090359E+01 2.50000000E+06 1.00000000E+00
  1 5 23 9.46762962E+01 2.50000000E+06 1.00000000E+00
  1 5 24 9.35061893E+01 2.50000000E+06 1.00000000E+00
  1 5 25 9.21806107E+01 2.50000000E+06 1.00000000E+00
  1 5 26 9.06950798E+01 2.50000000E+06 1.00000000E+00
  1 5 27 8.90451336E+01 2.50000000E+06 1.00000000E+00
  1 5 28 8.72120457E+01 2.50000000E+06 1.00000000E+00
  1 5 29 8.51934490E+01 2.50000000E+06 1.00000000E+00
  1 5 30 8.29858093E+01 2.50000000E+06 1.00000000E+00
  1 5 31 8.06165619E+01 2.50000000E+06 1.00000000E+00
  1 5 32 7.81034508E+01 2.50000000E+06 1.00000000E+00
  1 5 33 7.55530243E+01 2.50000000E+06 1.00000000E+00
  1 5 34 7.30109997E+01 2.50000000E+06 1.00000000E+00
  1 5 35 7.09967594E+01 2.50000000E+06 1.00000000E+00
  1 5 36 6.97232475E+01 2.50000000E+06 1.00000000E+00
  1 5 37 6.96018391E+01 2.50000000E+06 1.00000000E+00
  1 5 38 6.96115067E+01 2.50000000E+06 1.00000000E+00
  1 5 39 6.66919403E+01 2.50000000E+06 1.00000000E+00
  1 5 40 6.65064545E+01 2.50000000E+06 1.00000000E+00
  1 6 10 1.00721428E+02 2.50000000E+06 1.00000000E+00
  1 6 11 1.00710999E+02 2.50000000E+06 1.00000000E+00
  1 6 12 1.00620159E+02 2.50000000E+06 1.00000000E+00
  1 6 13 1.00425806E+02 2.50000000E+06 1.00000000E+00
  1 6 14 1.00157690E+02 2.50000000E+06 1.00000000E+00
  1 6 15 9.98010578E+01 2.50000000E+06 1.00000000E+00
  1 6 16 9.93736401E+01 2.50000000E+06 1.00000000E+00
  1 6 17 9.88692398E+01 2.50000000E+06 1.00000000E+00
  1 6 18 9.82861881E+01 2.50000000E+06 1.00000000E+00
  1 6 19 9.76213512E+01 2.50000000E+06 1.00000000E+00
  1 6 20 9.68717194E+01 2.50000000E+06 1.00000000E+00
  1 6 21 9.60276985E+01 2.50000000E+06 1.00000000E+00
  1 6 22 9.50825996E+01 2.50000000E+06 1.00000000E+00
  1 6 23 9.40203686E+01 2.50000000E+06 1.00000000E+00
  1 6 24 9.28231392E+01 2.50000000E+06 1.00000000E+00
  1 6 25 9.14718113E+01 2.50000000E+06 1.00000000E+00
  1 6 26 8.99555321E+01 2.50000000E+06 1.00000000E+00
  1 6 27 8.82576847E+01 2.50000000E+06 1.00000000E+00
  1 6 28 8.63660183E+01 2.50000000E+06 1.00000000E+00
  1 6 29 8.42654438E+01 2.50000000E+06 1.00000000E+00
  1 6 30 8.19702320E+01 2.50000000E+06 1.00000000E+00
  1 6 31 7.94796772E+01 2.50000000E+06 1.00000000E+00
  1 6 32 7.68848534E+01 2.50000000E+06 1.00000000E+00
  1 6 33 7.43054905E+01 2.50000000E+06 1.00000000E+00
  1 6 34 7.19461441E+01 2.50000000E+06 1.00000000E+00
  1 6 35 7.00224838E+01 2.50000000E+06 1.00000000E+00
  1 6 36 6.85462952E+01 2.50000000E+06 1.00000000E+00
  1 6 37 6.75238819E+01 2.50000000E+06 1.00000000E+00
  1 6 38 6.68900566E+01 2.50000000E+06 1.00000000E+00
  1 6 39 6.65118599E+01 2.50000000E+06 1.00000000E+00
  1 6 40 6.62193413E+01 2.50000000E+06 1.00000000E+00
  1 6 41 6.59577827E+01 2.50000000E+06 1.00000000E+00
  1 6 42 6.57412491E+01 2.50000000E+06 1.00000000E+00
  1 6 43 6.54538021E+01 2.50000000E+06 1.00000000E+00
  1 6 44 6.52072525E+01 2.50000000E+06 1.00000000E+00
  1 6 45 6.46532822E+01 2.50000000E+06 1.00000000E+00
  1 7 9 1.00598457E+02 2.50000000E+06 1.00000000E+00
  1 7 10 1.00599739E+02 2.50000000E+06 1.00000000E+00
  1 7 11 1.00471697E+02 2.50000000E+06 1.00000000E+00
  1 7 12 1.00244429E+02 2.50000000E+06 1.00000000E+00
  1 7 13 9.99503117E+01 2.50000000E+06 1.00000000E+00
  1 7 14 9.95886021E+01 2.50000000E+06 1.00000000E+00
  1 7 15 9.91696205E+01 2.50000000E+06 1.00000000E+00
  1 7 16 9.86845207E+01 2.50000000E+06 1.00000000E+00
  1 7 17 9.81403999E+01 2.50000000E+06 1.00000000E+00
  1 7 18 9.75234394E+01 2.50000000E+06 1.00000000E+00
  1 7 19 9.68352242E+01 2.50000000E+06 1.00000000E+00
  1 7 20 9.60662346E+01 2.50000000E+06 1.00000000E+00
  1 7 21 9.52075443E+01 2.50000000E+06 1.00000000E+00
  1 7 22 9.42466717E+01 2.50000000E+06 1.00000000E+00
  1 7 23 9.31699276E+01 2.50000000E+06 1.00000000E+00
  1 7 24 9.19577599E+01 2.50000000E+06 1.00000000E+00
  1 7 25 9.05924606E+01 2.50000000E+06 1.00000000E+00
  1 7 26 8.90526714E+01 2.50000000E+06 1.00000000E+00
  1 7 27 8.73193836E+01 2.50000000E+06 1.00000000E+00
  1 7 28 8.53659191E+01 2.50000000E+06 1.00000000E+00
  1 7 29 8.31862888E+01 2.50000000E+06 1.00000000E+00
  1 7 30 8.07548332E+01 2.50000000E+06 1.00000000E+00
  1 7 31 7.80863285E+01 2.50000000E+06 1.00000000E+00
  1 7 32 7.52456837E+01 2.50000000E+06 1.00000000E+00
  1 7 33 7.24533958E+01 2.50000000E+06 1.00000000E+00
  1 7 34 6.99775677E+01 2.50000000E+06 1.00000000E+00
  1 7 35 6.81818829E+01 2.50000000E+06 1.00000000E+00
  1 7 36 6.70761929E+01 2.50000000E+06 1.00000000E+00
  1 7 37 6.63829346E+01 2.50000000E+06 1.00000000E+00
  1 7 38 6.60198555E+01 2.50000000E+06 1.00000000E+00
  1 7 39 6.58060837E+01 2.50000000E+06 1.00000000E+00
  1 7 40 6.56693115E+01 2.50000000E+06 1.00000000E+00
  1 7 41 6.55249100E+01 2.50000000E+06 1.00000000E+00
  1 7 42 6.53608418E+01 2.50000000E+06 1.00000000E+00
  1 7 43 6.51431084E+01 2.50000000E+06 1.00000000E+00
  1 7 44 6.48596649E+01 2.50000000E+06 1.00000000E+00
  1 7 45 6.44937096E+01 2.50000000E+06 1.00000000E+00
  1 7 46 6.40342236E+01 2.50000000E+06 1.00000000E+00
  1 7 47 6.33368416E+01 2.50000000E+06 1.00000000E+00
  1 8 8 1.01368416E+02 2.50000000E+06 1.00000000E+00
  1 8 9 1.00531677E+02 2.50000000E+06 1.00000000E+00
  1 8 10 1.00306492E+02 2.50000000E+06 1.00000000E+00
  1 8 11 9.99925442E+01 2.50000000E+06 1.00000000E+00
  1 8 12 9.96265163E+01 2.50000000E+06 1.00000000E+00
  1 8 13 9.92170601E+01 2.50000000E+06 1.00000000E+00
  1 8 14 9.87662277E+01 2.50000000E+06 1.00000000E+00
  1 8 15 9.82788353E+01 2.50000000E+06 1.00000000E+00
  1 8 16 9.77454739E+01 2.50000000E+06 1.00000000E+00
  1 8 17 9.71577148E+01 2.50000000E+06 1.00000000E+00
  1 8 18 9.65150223E+01 2.50000000E+06 1.00000000E+00
  1 8 19 9.58064690E+01 2.50000000E+06 1.00000000E+00
  1 8 20 9.50251808E+01 2.50000000E+06 1.00000000E+00
  1 8 21 9.41598034E+01 2.50000000E+06 1.00000000E+00
  1 8 22 9.31969070E+01 2.50000000E+06 1.00000000E+00
  1 8 23 9.21204166E+01 2.50000000E+06 1.00000000E+00
  1 8 24 9.09101753E+01 2.50000000E+06 1.00000000E+00
  1 8 25 8.95434513E+01 2.50000000E+06 1.00000000E+00
  1 8 26 8.79953880E+01 2.50000000E+06 1.00000000E+00
  1 8 27 8.62377701E+01 2.50000000E+06 1.00000000E+00
  1 8 28 8.42432175E+01 2.50000000E+06 1.00000000E+00
  1 8 29 8.19677925E+01 2.50000000E+06 1.00000000E+00
  1 8 30 7.93893585E+01 2.50000000E+06 1.00000000E+00
  1 8 31 7.64771595E+01 2.50000000E+06 1.00000000E+00
  1 8 32 7.32162571E+01 2.50000000E+06 1.00000000E+00
  1 8 33 6.98054752E+01 2.50000000E+06 1.00000000E+00
  1 8 34 6.68461170E+01 2.50000000E+06 1.00000000E+00
  1 8 35 6.52894802E+01 2.50000000E+06 1.00000000E+00
  1 8 36 6.47347851E+01 2.50000000E+06 1.00000000E+00
  1 8 37 6.45894814E+01 2.50000000E+06 1.00000000E+00
  1 8 38 6.46149445E+01 2.50000000E+06 1.00000000E+00
  1 8 39 6.46813774E+01 2.50000000E+06 1.00000000E+00
  1 8 40 6.47254009E+01 2.50000000E+06 1.00000000E+00
  1 8 41 6.47334404E+01 2.50000000E+06 1.00000000E+00
  1 8 42 6.46685600E+01 2.50000000E+06 1.00000000E+00
  1 8 43 6.45350418E+01 2.50000000E+06 1.00000000E+00
  1 8 44 6.43137627E+01 2.50000000E+06 1.00000000E+00
  1 8 45 6.39956741E+01 2.50000000E+06 1.00000000E+00
  1 8 46 6.35654621E+01 2.50000000E+06 1.00000000E+00
  1 8 47 6.30422697E+01 2.50000000E+06 1.00000000E+00
  1 8 48 6.24122858E+01 2.50000000E+06 1.00000000E+00
  1 8 49 6.14698600E+01 2.50000000E+06 1.00000000E+00
  1 8 50 6.08682327E+01 2.50000000E+06 1.00000000E+00
  1 9 7 1.01260969E+02 2.50000000E+06 1.00000000E+00
  1 9 8 1.00669603E+02 2.50000000E+06 1.00000000E+00
  1 9 9 1.00285709E+02 2.50000000E+06 1.00000000E+00
  1 9 10 9.97982750E+01 2.50000000E+06 1.00000000E+00
  1 9 11 9.92794285E+01 2.50000000E+06 1.00000000E+00
  1 9 12 9.87401524E+01 2.50000000E+06 1.00000000E+00
  1 9 13 9.82077312E+01 2.50000000E+06 1.00000000E+00
  1 9 14 9.76673489E+01 2.50000000E+06 1.00000000E+00
  1 9 15 9.71148396E+01 2.50000000E+06 1.00000000E+00
  1 9 16 9.65307941E+01 2.50000000E+06 1.00000000E+00
  1 9 17 9.59128571E+01 2.50000000E+06 1.00000000E+00
  1 9 18 9.52455425E+01 2.50000000E+06 1.00000000E+00
  1 9 19 9.45238400E+01 2.50000000E+06 1.00000000E+00
  1 9 20 9.37382526E+01 2.50000000E+06 1.00000000E+00
  1 9 21 9.28776035E+01 2.50000000E+06 1.00000000E+00
  1 9 22 9.19272747E+01 2.50000000E+06 1.00000000E+00
  1 9 23 9.08675442E+01 2.50000000E+06 1.00000000E+00
  1 9 24 8.96781387E+01 2.50000000E+06 1.00000000E+00
  1 9 25 8.83290501E+01 2.50000000E+06 1.00000000E+00
  1 9 26 8.67963181E+01 2.50000000E+06 1.00000000E+00
  1 9 27 8.50387878E+01 2.50000000E+06 1.00000000E+00
  1 9 28 8.30197315E+01 2.50000000E+06 1.00000000E+00
  1 9 29 8.06885529E+01 2.50000000E+06 1.00000000E+00
  1 9 30 7.79700565E+01 2.50000000E+06 1.00000000E+00
  1 9 31 7.47981377E+01 2.50000000E+06 1.00000000E+00
  1 9 32 7.09874573E+01 2.50000000E+06 1.00000000E+00
  1 9 33 6.63915844E+01 2.50000000E+06 1.00000000E+00
  1 9 34 6.14337225E+01 2.50000000E+06 1.00000000E+00
  1 9 35 6.09311953E+01 2.50000000E+06 1.00000000E+00
  1 9 36 6.16590776E+01 2.50000000E+06 1.00000000E+00
  1 9 37 6.22666655E+01 2.50000000E+06 1.00000000E+00
  1 9 38 6.27636938E+01 2.50000000E+06 1.00000000E+00
  1 9 39 6.31530323E+01 2.50000000E+06 1.00000000E+00
  1 9 40 6.34501486E+01 2.50000000E+06 1.00000000E+00
  1 9 41 6.36112728E+01 2.50000000E+06 1.00000000E+00
  1 9 42 6.36770353E+01 2.50000000E+06 1.00000000E+00
  1 9 43 6.36343603E+01 2.50000000E+06 1.00000000E+00
  1 9 44 6.34830160E+01 2.50000000E+06 1.00000000E+00
  1 9 45 6.32269964E+01 2.50000000E+06 1.00000000E+00
  1 9 46 6.28716154E+01 2.50000000E+06 1.00000000E+00
  1 9 47 6.24072151E+01 2.50000000E+06 1.00000000E+00
  1 9 48 6.18449574E+01 2.50000000E+06 1.00000000E+00
  1 9 49 6.11983624E+01 2.50000000E+06 1.00000000E+00
  1 9 50 6.04501944E+01 2.50000000E+06 1.00000000E+00
  1 9 51 5.96904383E+01 2.50000000E+06 1.00000000E+00
  1 9 52 5.80473577E+01 2.50000000E+06 1.00000000E+00
  1 10 5 1.02266701E+02 2.50000000E+06 1.00000000E+00
  1 10 6 1.01755066E+02 2.50000000E+06 1.00000000E+00
  1 10 7 1.01180140E+02 2.50000000E+06 1.00000000E+00
  1 10 8 1.00522022E+02 2.50000000E+06 1.00000000E+00
  1 10 9 9.97810230E+01 2.50000000E+06 1.00000000E+00
  1 10 10 9.90082207E+01 2.50000000E+06 1.00000000E+00
  1 10 11 9.82438812E+01 2.50000000E+06 1.00000000E+00
  1 10 12 9.75313988E+01 2.50000000E+06 1.00000000E+00
  1 10 13 9.68747253E+01 2.50000000E+06 1.00000000E+00
  1 10 14 9.62594833E+01 2.50000000E+06 1.00000000E+00
  1 10 15 9.56512890E+01 2.50000000E+06 1.00000000E+00
  1 10 16 9.50302982E+01 2.50000000E+06 1.00000000E+00
  1 10 17 9.43833065E+01 2.50000000E+06 1.00000000E+00
  1 10 18 9.36995525E+01 2.50000000E+06 1.00000000E+00
  1 10 19 9.29717865E+01 2.50000000E+06 1.00000000E+00
  1 10 20 9.21911488E+01 2.50000000E+06 1.00000000E+00
  1 10 21 9.13486118E+01 2.50000000E+06 1.00000000E+00
  1 10 22 9.04250736E+01 2.50000000E+06 1.00000000E+00
  1 10 23 8.94018078E+01 2.50000000E+06 1.00000000E+00
  1 10 24 8.82558422E+01 2.50000000E+06 1.00000000E+00
  1 10 25 8.69529705E+01 2.50000000E+06 1.00000000E+00
  1 10 26 8.54620743E+01 2.50000000E+06 1.00000000E+00
  1 10 27 8.37400684E+01 2.50000000E+06 1.00000000E+00
  1 10 28 8.17361526E+01 2.50000000E+06 1.00000000E+00
  1 10 29 7.93916664E+01 2.50000000E+06 1.00000000E+00
  1 10 30 7.66202545E+01 2.50000000E+06 1.00000000E+00
  1 10 31 7.32770844E+01 2.50000000E+06 1.00000000E+00
  1 10 32 6.91139641E+01 2.50000000E+06 1.00000000E+00
  1 10 33 6.34484425E+01 2.50000000E+06 1.00000000E+00
  1 10 35 5.59566841E+01 2.50000000E+06 1.00000000E+00
  1 10 36 5.82392445E+01 2.50000000E+06 1.00000000E+00
  1 10 37 5.96421995E+01 2.50000000E+06 1.00000000E+00
  1 10 38 6.06322336E+01 2.50000000E+06 1.00000000E+00
  1 10 39 6.13722582E+01 2.50000000E+06 1.00000000E+00
  1 10 40 6.18850260E+01 2.50000000E+06 1.00000000E+00
  1 10 41 6.22253428E+01 2.50000000E+06 1.00000000E+00
  1 10 42 6.24006643E+01 2.50000000E+06 1.00000000E+00
  1 10 43 6.24485922E+01 2.50000000E+06 1.00000000E+00
  1 10 44 6.23731441E+01 2.50000000E+06 1.00000000E+00
  1 10 45 6.21821136E+01 2.50000000E+06 1.00000000E+00
  1 10 46 6.18883686E+01 2.50000000E+06 1.00000000E+00
  1 10 47 6.14958115E+01 2.50000000E+06 1.00000000E+00
  1 10 48 6.10067215E+01 2.50000000E+06 1.00000000E+00
  1 10 49 6.04318647E+01 2.50000000E+06 1.00000000E+00
  1 10 50 5.97614412E+01 2.50000000E+06 1.00000000E+00
  1 10 51 5.90264988E+01 2.50000000E+06 1.00000000E+00
  1 10 52 5.82117548E+01 2.50000000E+06 1.00000000E+00
  1 10 53 5.73611565E+01 2.50000000E+06 1.00000000E+00
  1 10 54 5.62454559E+01 2.50000000E+06 1.00000000E+00
  1 11 4 1.02852043E+02 2.50000000E+06 1.00000000E+00
  1 11 5 1.02459557E+02 2.50000000E+06 1.00000000E+00
  1 11 6 1.01876072E+02 2.50000000E+06 1.00000000E+00
  1 11 7 1.01095842E+02 2.50000000E+06 1.00000000E+00
  1 11 8 1.00127640E+02 2.50000000E+06 1.00000000E+00
  1 11 9 9.90384121E+01 2.50000000E+06 1.00000000E+00
  1 11 10 9.78983555E+01 2.50000000E+06 1.00000000E+00
  1 11 11 9.68207016E+01 2.50000000E+06 1.00000000E+00
  1 11 12 9.59241428E+01 2.50000000E+06 1.00000000E+00
  1 11 13 9.51764526E+01 2.50000000E+06 1.00000000E+00
  1 11 14 9.45095825E+01 2.50000000E+06 1.00000000E+00
  1 11 15 9.38696728E+01 2.50000000E+06 1.00000000E+00
  1 11 16 9.32218800E+01 2.50000000E+06 1.00000000E+00
  1 11 17 9.25538769E+01 2.50000000E+06 1.00000000E+00
  1 11 18 9.18586407E+01 2.50000000E+06 1.00000000E+00
  1 11 19 9.11318245E+01 2.50000000E+06 1.00000000E+00
  1 11 20 9.03663654E+01 2.50000000E+06 1.00000000E+00
  1 11 21 8.95537910E+01 2.50000000E+06 1.00000000E+00
  1 11 22 8.86782761E+01 2.50000000E+06 1.00000000E+00
  1 11 23 8.77113552E+01 2.50000000E+06 1.00000000E+00
  1 11 24 8.66364346E+01 2.50000000E+06 1.00000000E+00
  1 11 25 8.54094048E+01 2.50000000E+06 1.00000000E+00
  1 11 26 8.39973698E+01 2.50000000E+06 1.00000000E+00
  1 11 27 8.23471813E+01 2.50000000E+06 1.00000000E+00
  1 11 28 8.04139080E+01 2.50000000E+06 1.00000000E+00
  1 11 29 7.81254787E+01 2.50000000E+06 1.00000000E+00
  1 11 30 7.54033623E+01 2.50000000E+06 1.00000000E+00
  1 11 31 7.21127758E+01 2.50000000E+06 1.00000000E+00
  1 11 32 6.80899410E+01 2.50000000E+06 1.00000000E+00
  1 11 33 6.29647694E+01 2.50000000E+06 1.00000000E+00
  1 11 36 5.50808344E+01 2.50000000E+06 1.00000000E+00
  1 11 37 5.69079428E+01 2.50000000E+06 1.00000000E+00
  1 11 38 5.83386269E+01 2.50000000E+06 1.00000000E+00
  1 11 39 5.93634157E+01 2.50000000E+06 1.00000000E+00
  1 11 40 6.00989037E+01 2.50000000E+06 1.00000000E+00
  1 11 41 6.05847330E+01 2.50000000E+06 1.00000000E+00
  1 11 42 6.08691893E+01 2.50000000E+06 1.00000000E+00
  1 11 43 6.09946032E+01 2.50000000E+06 1.00000000E+00
  1 11 44 6.09826593E+01 2.50000000E+06 1.00000000E+00
  1 11 45 6.08496552E+01 2.50000000E+06 1.00000000E+00
  1 11 46 6.06133919E+01 2.50000000E+06 1.00000000E+00
  1 11 47 6.02774315E+01 2.50000000E+06 1.00000000E+00
  1 11 48 5.98586636E+01 2.50000000E+06 1.00000000E+00
  1 11 49 5.93549633E+01 2.50000000E+06 1.00000000E+00
  1 11 50 5.87742443E+01 2.50000000E+06 1.00000000E+00
  1 11 51 5.81129856E+01 2.50000000E+06 1.00000000E+00
  1 11 52 5.73574057E+01 2.50000000E+06 1.00000000E+00
  1 11 53 5.64567375E+01 2.50000000E+06 1.00000000E+00
  1 11 54 5.53955460E+01 2.50000000E+06 1.00000000E+00
  1 11 55 5.41884756E+01 2.50000000E+06 1.00000000E+00
  1 11 56 5.31970854E+01 2.50000000E+06 1.00000000E+00
  1 11 57 5.24545689E+01 2.50000000E+06 1.00000000E+00
  1 11 58 5.12675705E+01 2.50000000E+06 1.00000000E+00
  1 11 59 5.07043724E+01 2.50000000E+06 1.00000000E+00
  1 12 4 1.03151304E+02 2.50000000E+06 1.00000000E+00
  1 12 5 1.02674040E+02 2.50000000E+06 1.00000000E+00
  1 12 6 1.01924032E+02 2.50000000E+06 1.00000000E+00
  1 12 7 1.00888346E+02 2.50000000E+06 1.00000000E+00
  1 12 8 9.95960236E+01 2.50000000E+06 1.00000000E+00
  1 12 9 9.80179291E+01 2.50000000E+06 1.00000000E+00
  1 12 10 9.63825111E+01 2.50000000E+06 1.00000000E+00
  1 12 11 9.48853664E+01 2.50000000E+06 1.00000000E+00
  1 12 12 9.38226280E+01 2.50000000E+06 1.00000000E+00
  1 12 13 9.30576401E+01 2.50000000E+06 1.00000000E+00
  1 12 14 9.24001522E+01 2.50000000E+06 1.00000000E+00
  1 12 15 9.17564106E+01 2.50000000E+06 1.00000000E+00
  1 12 16 9.10935383E+01 2.50000000E+06 1.00000000E+00
  1 12 17 9.04061890E+01 2.50000000E+06 1.00000000E+00
  1 12 18 8.97021465E+01 2.50000000E+06 1.00000000E+00
  1 12 19 8.89806919E+01 2.50000000E+06 1.00000000E+00
  1 12 20 8.82399120E+01 2.50000000E+06 1.00000000E+00
  1 12 21 8.74724007E+01 2.50000000E+06 1.00000000E+00
  1 12 22 8.66607952E+01 2.50000000E+06 1.00000000E+00
  1 12 23 8.57878723E+01 2.50000000E+06 1.00000000E+00
  1 12 24 8.48080215E+01 2.50000000E+06 1.00000000E+00
  1 12 25 8.36996651E+01 2.50000000E+06 1.00000000E+00
  1 12 26 8.24018269E+01 2.50000000E+06 1.00000000E+00
  1 12 27 8.08824062E+01 2.50000000E+06 1.00000000E+00
  1 12 28 7.90661507E+01 2.50000000E+06 1.00000000E+00
  1 12 29 7.69118080E+01 2.50000000E+06 1.00000000E+00
  1 12 30 7.43280544E+01 2.50000000E+06 1.00000000E+00
  1 12 31 7.12727528E+01 2.50000000E+06 1.00000000E+00
  1 12 32 6.75819607E+01 2.50000000E+06 1.00000000E+00
  1 12 33 6.33103008E+01 2.50000000E+06 1.00000000E+00
  1 12 34 5.83940220E+01 2.50000000E+06 1.00000000E+00
  1 12 37 5.41447411E+01 2.50000000E+06 1.00000000E+00
  1 12 38 5.59854126E+01 2.50000000E+06 1.00000000E+00
  1 12 39 5.72641897E+01 2.50000000E+06 1.00000000E+00
  1 12 40 5.81503515E+01 2.50000000E+06 1.00000000E+00
  1 12 41 5.87367945E+01 2.50000000E+06 1.00000000E+00
  1 12 42 5.90918636E+01 2.50000000E+06 1.00000000E+00
  1 12 43 5.92742634E+01 2.50000000E+06 1.00000000E+00
  1 12 44 5.93063402E+01 2.50000000E+06 1.00000000E+00
  1 12 45 5.92200842E+01 2.50000000E+06 1.00000000E+00
  1 12 46 5.90309162E+01 2.50000000E+06 1.00000000E+00
  1 12 47 5.87530327E+01 2.50000000E+06 1.00000000E+00
  1 12 48 5.83944464E+01 2.50000000E+06 1.00000000E+00
  1 12 49 5.79658556E+01 2.50000000E+06 1.00000000E+00
  1 12 50 5.74631472E+01 2.50000000E+06 1.00000000E+00
  1 12 51 5.68847218E+01 2.50000000E+06 1.00000000E+00
  1 12 52 5.62183514E+01 2.50000000E+06 1.00000000E+00
  1 12 53 5.54524183E+01 2.50000000E+06 1.00000000E+00
  1 12 54 5.45871811E+01 2.50000000E+06 1.00000000E+00
  1 12 55 5.36518688E+01 2.50000000E+06 1.00000000E+00
  1 12 56 5.27366142E+01 2.50000000E+06 1.00000000E+00
  1 12 57 5.18279972E+01 2.50000000E+06 1.00000000E+00
  1 12 58 5.08664026E+01 2.50000000E+06 1.00000000E+00
  1 12 59 4.98828325E+01 2.50000000E+06 1.00000000E+00
  1 12 60 4.88512259E+01 2.50000000E+06 1.00000000E+00
  1 12 61 4.72194633E+01 2.50000000E+06 1.00000000E+00
  1 13 3 1.03844902E+02 2.50000000E+06 1.00000000E+00
  1 13 4 1.03499714E+02 2.50000000E+06 1.00000000E+00
  1 13 5 1.02852629E+02 2.50000000E+06 1.00000000E+00
  1 13 6 1.01914019E+02 2.50000000E+06 1.00000000E+00
  1 13 7 1.00641621E+02 2.50000000E+06 1.00000000E+00
  1 13 8 9.89553909E+01 2.50000000E+06 1.00000000E+00
  1 13 9 9.68735218E+01 2.50000000E+06 1.00000000E+00
  1 13 10 9.42478790E+01 2.50000000E+06 1.00000000E+00
  1 13 11 9.20843792E+01 2.50000000E+06 1.00000000E+00
  1 13 12 9.10915718E+01 2.50000000E+06 1.00000000E+00
  1 13 13 9.04996452E+01 2.50000000E+06 1.00000000E+00
  1 13 14 8.99349613E+01 2.50000000E+06 1.00000000E+00
  1 13 15 8.93132153E+01 2.50000000E+06 1.00000000E+00
  1 13 16 8.86329308E+01 2.50000000E+06 1.00000000E+00
  1 13 17 8.79213505E+01 2.50000000E+06 1.00000000E+00
  1 13 18 8.72034531E+01 2.50000000E+06 1.00000000E+00
  1 13 19 8.64892120E+01 2.50000000E+06 1.00000000E+00
  1 13 20 8.57778854E+01 2.50000000E+06 1.00000000E+00
  1 13 21 8.50679035E+01 2.50000000E+06 1.00000000E+00
  1 13 22 8.43491325E+01 2.50000000E+06 1.00000000E+00
  1 13 23 8.35853004E+01 2.50000000E+06 1.00000000E+00
  1 13 24 8.27672234E+01 2.50000000E+06 1.00000000E+00
  1 13 25 8.18039246E+01 2.50000000E+06 1.00000000E+00
  1 13 26 8.06778736E+01 2.50000000E+06 1.00000000E+00
  1 13 27 7.93139801E+01 2.50000000E+06 1.00000000E+00
  1 13 28 7.76852207E+01 2.50000000E+06 1.00000000E+00
  1 13 29 7.57102165E+01 2.50000000E+06 1.00000000E+00
  1 13 30 7.33646984E+01 2.50000000E+06 1.00000000E+00
  1 13 31 7.05662899E+01 2.50000000E+06 1.00000000E+00
  1 13 32 6.73305759E+01 2.50000000E+06 1.00000000E+00
  1 13 33 6.36532087E+01 2.50000000E+06 1.00000000E+00
  1 13 34 5.96480980E+01 2.50000000E+06 1.00000000E+00
  1 13 35 5.55277624E+01 2.50000000E+06 1.00000000E+00
  1 13 38 5.37283688E+01 2.50000000E+06 1.00000000E+00
  1 13 39 5.51250639E+01 2.50000000E+06 1.00000000E+00
  1 13 40 5.60708733E+01 2.50000000E+06 1.00000000E+00
  1 13 41 5.66935997E+01 2.50000000E+06 1.00000000E+00
  1 13 42 5.70799227E+01 2.50000000E+06 1.00000000E+00
  1 13 43 5.72843275E+01 2.50000000E+06 1.00000000E+00
  1 13 44 5.73436985E+01 2.50000000E+06 1.00000000E+00
  1 13 45 5.72836685E+01 2.50000000E+06 1.00000000E+00
  1 13 46 5.71273251E+01 2.50000000E+06 1.00000000E+00
  1 13 47 5.68922091E+01 2.50000000E+06 1.00000000E+00
  1 13 48 5.65894871E+01 2.50000000E+06 1.00000000E+00
  1 13 49 5.62279215E+01 2.50000000E+06 1.00000000E+00
  1 13 50 5.58163519E+01 2.50000000E+06 1.00000000E+00
  1 13 51 5.53311529E+01 2.50000000E+06 1.00000000E+00
  1 13 52 5.47819662E+01 2.50000000E+06 1.00000000E+00
  1 13 53 5.41517782E+01 2.50000000E+06 1.00000000E+00
  1 13 54 5.34409847E+01 2.50000000E+06 1.00000000E+00
  1 13 55 5.26547489E+01 2.50000000E+06 1.00000000E+00
  1 13 56 5.18356733E+01 2.50000000E+06 1.00000000E+00
  1 13 57 5.09696407E+01 2.50000000E+06 1.00000000E+00
  1 13 58 5.00484934E+01 2.50000000E+06 1.00000000E+00
  1 13 59 4.90551462E+01 2.50000000E+06 1.00000000E+00
  1 13 60 4.79664307E+01 2.50000000E+06 1.00000000E+00
  1 13 61 4.68328552E+01 2.50000000E+06 1.00000000E+00
  1 13 62 4.53474541E+01 2.50000000E+06 1.00000000E+00
  1 14 3 1.04227423E+02 2.50000000E+06 1.00000000E+00
  1 14 4 1.03775400E+02 2.50000000E+06 1.00000000E+00
  1 14 5 1.03014132E+02 2.50000000E+06 1.00000000E+00
  1 14 6 1.01927078E+02 2.50000000E+06 1.00000000E+00
  1 14 7 1.00447229E+02 2.50000000E+06 1.00000000E+00
  1 14 8 9.85007286E+01 2.50000000E+06 1.00000000E+00
  1 14 9 9.58033981E+01 2.50000000E+06 1.00000000E+00
  1 14 10 9.19392929E+01 2.50000000E+06 1.00000000E+00
  1 14 12 8.75905418E+01 2.50000000E+06 1.00000000E+00
  1 14 13 8.76009388E+01 2.50000000E+06 1.00000000E+00
  1 14 14 8.71728058E+01 2.50000000E+06 1.00000000E+00
  1 14 15 8.65654602E+01 2.50000000E+06 1.00000000E+00
  1 14 16 8.58381786E+01 2.50000000E+06 1.00000000E+00
  1 14 17 8.50657730E+01 2.50000000E+06 1.00000000E+00
  1 14 18 8.43283577E+01 2.50000000E+06 1.00000000E+00
  1 14 19 8.36228561E+01 2.50000000E+06 1.00000000E+00
  1 14 20 8.29405899E+01 2.50000000E+06 1.00000000E+00
  1 14 21 8.23015881E+01 2.50000000E+06 1.00000000E+00
  1 14 22 8.16845531E+01 2.50000000E+06 1.00000000E+00
  1 14 23 8.10936852E+01 2.50000000E+06 1.00000000E+00
  1 14 24 8.04582291E+01 2.50000000E+06 1.00000000E+00
  1 14 25 7.97346802E+01 2.50000000E+06 1.00000000E+00
  1 14 26 7.88167229E+01 2.50000000E+06 1.00000000E+00
  1 14 27 7.76672268E+01 2.50000000E+06 1.00000000E+00
  1 14 28 7.62476902E+01 2.50000000E+06 1.00000000E+00
  1 14 29 7.45100193E+01 2.50000000E+06 1.00000000E+00
  1 14 30 7.24113827E+01 2.50000000E+06 1.00000000E+00
  1 14 31 6.99368248E+01 2.50000000E+06 1.00000000E+00
  1 14 32 6.70965958E+01 2.50000000E+06 1.00000000E+00
  1 14 33 6.39058895E+01 2.50000000E+06 1.00000000E+00
  1 14 34 6.03973122E+01 2.50000000E+06 1.00000000E+00
  1 14 35 5.67516890E+01 2.50000000E+06 1.00000000E+00
  1 14 36 5.29169140E+01 2.50000000E+06 1.00000000E+00
  1 14 38 5.16469421E+01 2.50000000E+06 1.00000000E+00
  1 14 39 5.29876499E+01 2.50000000E+06 1.00000000E+00
  1 14 40 5.38770771E+01 2.50000000E+06 1.00000000E+00
  1 14 41 5.44553661E+01 2.50000000E+06 1.00000000E+00
  1 14 42 5.48205509E+01 2.50000000E+06 1.00000000E+00
  1 14 43 5.50164614E+01 2.50000000E+06 1.00000000E+00
  1 14 44 5.50757799E+01 2.50000000E+06 1.00000000E+00
  1 14 45 5.50219908E+01 2.50000000E+06 1.00000000E+00
  1 14 46 5.48805695E+01 2.50000000E+06 1.00000000E+00
  1 14 47 5.46747780E+01 2.50000000E+06 1.00000000E+00
  1 14 48 5.44224224E+01 2.50000000E+06 1.00000000E+00
  1 14 49 5.41306591E+01 2.50000000E+06 1.00000000E+00
  1 14 50 5.38062048E+01 2.50000000E+06 1.00000000E+00
  1 14 51 5.34387474E+01 2.50000000E+06 1.00000000E+00
  1 14 52 5.30038033E+01 2.50000000E+06 1.00000000E+00
  1 14 53 5.25088053E+01 2.50000000E+06 1.00000000E+00
  1 14 54 5.19359951E+01 2.50000000E+06 1.00000000E+00
  1 14 55 5.12806292E+01 2.50000000E+06 1.00000000E+00
  1 14 56 5.05523863E+01 2.50000000E+06 1.00000000E+00
  1 14 57 4.97515755E+01 2.50000000E+06 1.00000000E+00
  1 14 58 4.88674364E+01 2.50000000E+06 1.00000000E+00
  1 14 59 4.78895845E+01 2.50000000E+06 1.00000000E+00
  1 14 60 4.68070726E+01 2.50000000E+06 1.00000000E+00
  1 14 61 4.56015081E+01 2.50000000E+06 1.00000000E+00
  1 14 62 4.41595736E+01 2.50000000E+06 1.00000000E+00
  1 14 63 4.27211933E+01 2.50000000E+06 1.00000000E+00
  1 15 2 1.04792526E+02 2.50000000E+06 1.00000000E+00
  1 15 3 1.04573000E+02 2.50000000E+06 1.00000000E+00
  1 15 4 1.04040125E+02 2.50000000E+06 1.00000000E+00
  1 15 5 1.03197710E+02 2.50000000E+06 1.00000000E+00
  1 15 6 1.02012617E+02 2.50000000E+06 1.00000000E+00
  1 15 7 1.00431377E+02 2.50000000E+06 1.00000000E+00
  1 15 8 9.83502789E+01 2.50000000E+06 1.00000000E+00
  1 15 9 9.55693245E+01 2.50000000E+06 1.00000000E+00
  1 15 10 9.16786423E+01 2.50000000E+06 1.00000000E+00
  1 15 13 8.47070045E+01 2.50000000E+06 1.00000000E+00
  1 15 14 8.41959324E+01 2.50000000E+06 1.00000000E+00
  1 15 15 8.35812702E+01 2.50000000E+06 1.00000000E+00
  1 15 16 8.26826725E+01 2.50000000E+06 1.00000000E+00
  1 15 17 8.17786903E+01 2.50000000E+06 1.00000000E+00
  1 15 18 8.10407715E+01 2.50000000E+06 1.00000000E+00
  1 15 19 8.03464661E+01 2.50000000E+06 1.00000000E+00
  1 15 20 7.96708450E+01 2.50000000E+06 1.00000000E+00
  1 15 21 7.91041870E+01 2.50000000E+06 1.00000000E+00
  1 15 22 7.86293221E+01 2.50000000E+06 1.00000000E+00
  1 15 23 7.82551613E+01 2.50000000E+06 1.00000000E+00
  1 15 24 7.79090061E+01 2.50000000E+06 1.00000000E+00
  1 15 25 7.74493694E+01 2.50000000E+06 1.00000000E+00
  1 15 26 7.68052025E+01 2.50000000E+06 1.00000000E+00
  1 15 27 7.59274807E+01 2.50000000E+06 1.00000000E+00
  1 15 28 7.47502708E+01 2.50000000E+06 1.00000000E+00
  1 15 29 7.32674007E+01 2.50000000E+06 1.00000000E+00
  1 15 30 7.14510670E+01 2.50000000E+06 1.00000000E+00
  1 15 31 6.92825108E+01 2.50000000E+06 1.00000000E+00
  1 15 32 6.67790813E+01 2.50000000E+06 1.00000000E+00
  1 15 33 6.39651585E+01 2.50000000E+06 1.00000000E+00
  1 15 34 6.08960772E+01 2.50000000E+06 1.00000000E+00
  1 15 35 5.75787373E+01 2.50000000E+06 1.00000000E+00
  1 15 36 5.40463047E+01 2.50000000E+06 1.00000000E+00
  1 15 39 5.08781672E+01 2.50000000E+06 1.00000000E+00
  1 15 40 5.15453825E+01 2.50000000E+06 1.00000000E+00
  1 15 41 5.19906664E+01 2.50000000E+06 1.00000000E+00
  1 15 42 5.22868824E+01 2.50000000E+06 1.00000000E+00
  1 15 43 5.24482908E+01 2.50000000E+06 1.00000000E+00
  1 15 44 5.24818783E+01 2.50000000E+06 1.00000000E+00