# File generated by Flopy version 3.8.0 on 08/23/2024 at 19:20:36.
BEGIN options
  XORIGIN       0.00000000
  YORIGIN       0.00000000
END options

BEGIN dimensions
  NLAY  5
  NROW  41
  NCOL  73
END dimensions

BEGIN griddata
  delr
    CONSTANT    2500.00000000
  delc
    CONSTANT    2500.00000000
  top
    INTERNAL  FACTOR  1.0
       101.72914124     101.09039307     101.09845734     101.13024139     101.22142792     101.25666046     101.25666046     101.25666046     101.28726959     101.28726959     101.23593903     101.23593903     101.02922058     101.02922058     100.70333862     100.61952209      99.61818695      99.61818695      99.06137085      97.70894623      97.52515411      96.95259857      95.87101746      95.09060669      94.44600677      92.22425842      90.56587982      90.18769073      87.03125000      87.03125000      83.31587219      83.31587219      80.09763336      75.64496613      75.64496613      70.97997284      70.97997284      67.70229340      67.19194031      67.00645447      67.00645447      66.32443237      66.26735687      66.26735687      65.70725250      65.70725250      65.15328217      65.15328217      63.83684158      63.83684158      62.15637970      62.15637970      62.15637970      60.18175125      60.18175125      59.30734634      58.35778427      52.93722153      52.93722153      52.93722153      51.20437241      51.20437241      51.20437241      51.20437241      50.16458130      48.97345734      47.71946335      47.71946335      47.71946335      47.71946335      44.04087067      44.04087067      40.99962997
       101.72914124     101.72914124     101.09039307     101.09845734     101.13024139     101.22142792     101.25666046     101.25666046     101.25666046     101.28726959     101.23593903     101.23593903     101.23593903     101.02922058     100.70333862     100.61952209      99.61818695      99.61818695      99.06137085      97.70894623      97.52515411      96.95259857      95.87101746      95.09060669      94.44600677      92.22425842      90.56587982      90.18769073      87.03125000      87.03125000      83.31587219      80.09763336      80.09763336      75.64496613      71.40554810      70.97997284      70.97997284      67.70229340      67.19194031      67.00645447      67.00645447      66.32443237      66.26735687      66.26735687      65.70725250      65.15328217      65.15328217      64.65097809      63.83684158      63.83684158      62.15637970      62.15637970      60.18175125      60.18175125      60.18175125      59.30734634      58.35778427      52.93722153      52.93722153      52.93722153      51.20437241      51.20437241      51.20437241      50.16458130      48.97345734      47.71946335      47.71946335      47.71946335      47.71946335      47.71946335      44.04087067      40.99962997      40.99962997
       102.49778748     101.72914124     101.72914124     101.09039307     101.09845734     101.13024139     101.22142792     101.25666046     101.25666046     101.28726959     101.28726959     101.23593903     101.23593903     101.02922058     100.70333862     100.61952209     100.14676666      99.60565567      99.11627960      98.42719078      97.63033295      96.83052444      95.90703964      94.86996460      93.56759834      92.05834389      90.66690063      89.24705941      87.03125000      84.60424805      83.31587219      80.09763336      76.24244690      75.64496613      71.40554810      70.97997284      68.26151276      67.70229340      67.19194031      67.00645447      67.00645447      66.32443237      66.26735687      65.70725250      65.70725250      65.15328217      65.15328217      63.83684158      63.83684158      63.17837143      62.15637970      62.15637970      60.18175125      60.18175125      59.30734634      58.35778427      52.93722153      52.93722153      52.93722153      51.20437241      51.20437241      51.20437241      51.20437241      50.16458130      48.97345734      47.71946335      47.71946335      47.71946335      47.71946335      44.04087067      40.99962997      40.99962997      40.99962997
       102.49778748     102.49778748     101.72914124     101.11743927     101.09039307     101.09845734     101.13024139     101.22142792     101.25666046     101.25666046     101.28726959     101.25476837     101.23593903     101.10486603     100.87582970     100.54894829     100.12549973      99.59672546      98.99747658      98.29612160      97.49979591      96.62433434      95.63648796      94.51799202      93.21659851      91.75205421      90.16724205      88.39156342      86.46804619      84.25304794      82.04062843      80.37208758      79.84074620      75.64496613      71.40554810      70.97997284      68.26151276      67.70229340      67.19194031      67.00645447      67.00645447      66.32443237      66.26735687      65.70725250      65.70725250      65.15328217      64.65097809      63.83684158      63.83684158      62.15637970      62.15637970      61.36823273      60.18175125      60.18175125      59.30734634      58.35778427      52.93722153      52.93722153      52.93722153      51.20437241      51.20437241      51.20437241      50.16458130      48.97345734      47.71946335      47.71946335      47.71946335      47.71946335      44.04087067      44.04087067      40.99962997      40.99962997      40.99962997
       102.49778748     102.49778748     101.72914124     101.72914124     101.11743927     101.09039307     101.09845734     101.13024139     101.22142792     101.25666046     101.26985931     101.27209473     101.18500137     100.98799896     100.70263100     100.32471466      99.86116219      99.30760956      98.67218018      97.94587135      97.12798691      96.20903587      95.17629623      94.00618935      92.68061066      91.19507980      89.54513359      87.71204567      85.69344902      83.48580933      81.11656189      78.60345078      76.05302429      73.51099968      71.49675941      70.22324753      70.10183907      70.11150667      67.19194031      67.00645447      66.48759460      66.32443237      66.26735687      65.70725250      65.15328217      65.15328217      64.65097809      63.83684158      63.17837143      62.15637970      62.15637970      60.18175125      60.18175125      59.30734634      58.35778427      58.35778427      52.93722153      52.93722153      52.93722153      51.20437241      51.20437241      51.20437241      50.16458130      48.97345734      47.71946335      47.71946335      47.71946335      44.04087067      44.04087067      40.99962997      40.99962997      40.99962997      36.22415924
       102.76670074     102.49778748     102.49778748     101.72914124     101.72914124     101.11743927     101.09039307     101.09845734     101.13024139     101.22142792     101.21099854     101.12015915     100.92580605     100.65769005     100.30105782      99.87364006      99.36923981      98.78618813      98.12135124      97.37171936      96.52769852      95.58259964      94.52036858      93.32313919      91.97181129      90.45553207      88.75768471      86.86601830      84.76544380      82.47023201      79.97967720      77.38485336      74.80549049      72.44614410      70.52248383      69.04629517      68.02388191      67.39005661      67.01185989      66.71934128      66.45778275      66.24124908      65.95380211      65.70725250      65.15328217      64.65097809      63.83684158      63.83684158      63.17837143      62.15637970      61.36823273      60.18175125      60.18175125      59.30734634      58.35778427      55.99590683      52.93722153      52.93722153      52.93722153      51.20437241      51.20437241      50.16458130      48.97345734      47.71946335      47.71946335      47.71946335      47.71946335      44.04087067      40.99962997      40.99962997      40.99962997      36.22415924      36.22415924
       103.05901337     102.76670074     102.49778748     102.49778748     101.72914124     101.72914124     101.11743927     101.09039307     101.09845734     101.09973907     100.97169685     100.74442863     100.45031166     100.08860207      99.66962051      99.18452072      98.64039993      98.02343941      97.33522415      96.56623459      95.70754433      94.74667168      93.66992760      92.45775986      91.09246063      89.55267143      87.81938362      85.86591911      83.68628883      81.25483322      78.58632851      75.74568367      72.95339584      70.47756767      68.68188286      67.57619286      66.88293457      66.51985550      66.30608368      66.16931152      66.02490997      65.86084175      65.64310837      65.35966492      64.99370956      64.53422356      63.83684158      63.17837143      62.15637970      62.15637970      61.36823273      60.18175125      59.30734634      58.35778427      58.35778427      55.99590683      52.93722153      52.93722153      51.20437241      51.20437241      51.20437241      50.16458130      48.97345734      47.71946335      47.71946335      47.71946335      44.04087067      44.04087067      40.99962997      40.99962997      36.22415924      36.22415924      36.22415924
       103.35204315     103.05901337     102.76670074     102.49778748     101.72914124     101.72914124     101.33309174     101.86841583     101.03167725     100.80649185     100.49254417     100.12651634      99.71706009      99.26622772      98.77883530      98.24547386      97.65771484      97.01502228      96.30646896      95.52518082      94.65980339      93.69690704      92.62041664      91.41017532      90.04345131      88.49538803      86.73777008      84.74321747      82.46779251      79.88935852      76.97715950      73.71625710      70.30547523      67.34611702      65.78948021      65.23478508      65.08948135      65.11494446      65.18137741      65.22540092      65.23344040      65.16856003      65.03504181      64.81376266      64.49567413      64.06546211      63.54226971      62.91228580      61.96985996      61.36823273      60.18175125      60.18175125      59.30734634      58.35778427      55.99590683      53.80909348      52.93722153      52.93722153      51.20437241      51.20437241      50.16458130      48.97345734      47.71946335      47.71946335      47.71946335      44.04087067      44.04087067      40.99962997      40.99962997      40.99962997      36.22415924      36.22415924      36.22415924
       103.61625671     103.35204315     103.05901337     102.76670074     102.49778748     101.72914124     101.76096869     101.16960335     100.78570938     100.29827499      99.77942848      99.24015236      98.70773125      98.16734886      97.61483955      97.03079414      96.41285706      95.74554253      95.02383995      94.23825264      93.37760353      92.42727470      91.36754417      90.17813873      88.82905006      87.29631805      85.53878784      83.51973152      81.18855286      78.47005653      75.29813766      71.48745728      66.89158440      61.93372250      61.43119526      62.15907764      62.76666546      63.26369381      63.65303230      63.95014858      64.11127281      64.17703533      64.13436031      63.98301601      63.72699642      63.37161541      62.90721512      62.34495735      61.69836235      60.95019436      60.19043827      58.54735768      58.35778427      57.69561386      55.99590683      53.80909348      52.93722153      52.93722153      51.20437241      51.20437241      50.16458130      48.97345734      47.71946335      47.71946335      44.04087067      44.04087067      40.99962997      40.99962997      40.99962997      36.22415924      36.22415924      36.22415924      29.29211807
       103.61625671     103.61625671     103.35204315     103.05901337     102.76670074     102.25506592     101.68013954     101.02202225     100.28102303      99.50822067      98.74388123      98.03139877      97.37472534      96.75948334      96.15128899      95.53029823      94.88330650      94.19955254      93.47178650      92.69114876      91.84861183      90.92507362      89.90180779      88.75584221      87.45297050      85.96207428      84.24006844      82.23615265      79.89166641      77.12025452      73.77708435      69.61396408      63.94844246      55.76970863      56.45668411      58.73924446      60.14219952      61.13223362      61.87225819      62.38502598      62.72534275      62.90066433      62.94859219      62.87314415      62.68211365      62.38836861      61.99581146      61.50672150      60.93186474      60.26144123      59.52649879      58.71175480      57.86115646      56.74545593      55.04522574      53.80909348      52.93722153      52.93722153      51.20437241      50.16458130      48.97345734      47.71946335      47.71946335      47.71946335      44.04087067      44.04087067      40.99962997      40.99962997      36.22415924      36.22415924      36.22415924      29.29211807      29.29211807
       104.34490204     103.61625671     103.61625671     103.35204315     102.95955658     102.37607193     101.59584236     100.62763977      99.53841209      98.39835548      97.32070160      96.42414284      95.67645264      95.00958252      94.36967278      93.72187996      93.05387688      92.35864067      91.63182449      90.86636543      90.05379105      89.17827606      88.21135521      87.13643456      85.90940475      84.49736977      82.84718132      80.91390800      78.62547874      75.90336227      72.61277580      68.58994102      63.46476936      57.39170551      53.83539009      55.58083439      57.40794277      58.83862686      59.86341572      60.59890366      61.08473301      61.36918926      61.49460316      61.48265934      61.34965515      61.11339188      60.77743149      60.35866356      59.85496330      59.27424431      58.61298561      57.85740566      56.95673752      55.89554596      54.68847561      53.69708538      52.95456886      51.76757050      51.20437241      50.16458130      48.97345734      47.71946335      47.71946335      44.04087067      44.04087067      40.99962997      40.99962997      36.22415924      36.22415924      36.22415924      29.29211807      29.29211807      29.29211807
       104.34490204     104.34490204     104.07053375     103.65130424     103.17403984     102.42403221     101.38834572     100.09602356      98.51792908      96.88251114      95.38536644      94.32262802      93.55764008      92.90015221      92.25641060      91.59353828      90.90618896      90.20214653      89.48069191      88.73991203      87.97240067      87.16079521      86.28787231      85.30802155      84.19966507      82.90182686      81.38240623      79.56615067      77.41180801      74.82805443      71.77275276      68.08196068      63.81030083      58.89402199      54.09160328      52.26461601      54.64474106      56.48541260      57.76418972      58.65035152      59.23679447      59.59186363      59.77426338      59.80634022      59.72008419      59.53091621      59.25303268      58.89444637      58.46585560      57.96314716      57.38472176      56.71835136      55.95241833      55.08718109      54.15186882      53.23661423      52.32799721      51.36640263      50.38283253      49.35122585      47.71946335      47.71946335      45.84745407      44.04087067      40.99962997      40.99962997      39.85358047      36.22415924      36.22415924      34.95113373      29.29211807      29.29211807      23.74958992
       104.73616028     104.73616028     104.34490204     103.99971390     103.35262871     102.41401863     101.14162064      99.45539093      97.37352180      94.74787903      92.58437920      91.59157181      90.99964523      90.43496132      89.81321526      89.13293076      88.42135048      87.70345306      86.98921204      86.27788544      85.56790352      84.84913254      84.08530045      83.26722336      82.30392456      81.17787361      79.81398010      78.18522072      76.21021652      73.86469841      71.06628990      67.83057594      64.15320873      60.14809799      56.02776241      52.08825302      52.21159172      54.22836876      55.62506390      56.57087326      57.19359970      57.57992268      57.78432751      57.84369850      57.78366852      57.62732506      57.39220905      57.08948708      56.72792149      56.31635189      55.83115292      55.28196621      54.65177822      53.94098473      53.15474892      52.33567333      51.46964073      50.54849339      49.55514622      48.46643066      47.33285522      45.84745407      44.04087067      42.94796753      40.99962997      39.85358047      36.22415924      36.22415924      34.95113373      29.29211807      29.29211807      23.74958992      23.74958992
       105.29252625     104.82328033     104.72742271     104.27540016     103.51413155     102.42707825     100.94722939      99.00072861      96.30339813      92.43929291      88.12082481      88.09054184      88.10093880      87.67280579      87.06546021      86.33817863      85.56577301      84.82835770      84.12285614      83.44058990      82.80158806      82.18455315      81.59368515      80.95822906      80.23468018      79.31672287      78.16722679      76.74769020      75.01001930      72.91138268      70.43682480      67.59659576      64.40588951      60.89731216      57.25168896      53.41691399      50.13888931      52.14694214      53.48764992      54.37707710      54.95536613      55.32055092      55.51646137      55.57577991      55.52199078      55.38056946      55.17477798      54.92242241      54.63065910      54.30620480      53.93874741      53.50380325      53.00880527      52.43599510      51.78062916      51.05238628      50.25157547      49.36743641      48.38958454      47.30707264      46.10150814      44.65957355      43.22119331      40.99962997      39.85358047      36.22415924      36.22415924      34.95113373      29.29211807      29.29211807      29.29211807      23.74958992      20.11955261
       105.29252625     105.29252625     105.07299995     104.54012489     103.69771004     102.51261711     100.93137741      98.85027885      96.06932449      92.17864227      87.71578217      84.86111069      85.20700455      84.69593239      84.08127022      83.18267250      82.27869034      81.54077148      80.84646606      80.17084503      79.60418701      79.12932205      78.75516129      78.40900612      77.94936943      77.30520248      76.42748070      75.25027084      73.76740074      71.95106697      69.78251076      67.27908134      64.46515846      61.39607716      58.07873726      54.54630470      50.56323338      50.24321365      51.37816715      52.04538250      52.49066639      52.78688240      52.94829082      52.98187828      52.90834427      52.76028919      52.56620502      52.35278606      52.13107872      51.90301323      51.65494633      51.37667847      51.01406288      50.57977390      50.04560375      49.41970158      48.68115616      47.84204578      46.88991833      45.82005310      44.61515903      43.25593567      41.73305321      40.13496208      38.48136902      36.22415924      34.95113373      33.47934341      29.29211807      29.29211807      23.74958992      23.74958992      20.11955261
       106.12169647     105.80449677     105.40356255     104.80294991     103.90668869     102.68105125     101.08346939      99.05662727      96.50223923      93.37776566      90.02374649      86.54878807      84.27667046      82.27828026      80.96848869      79.66846657      78.35033035      77.91747665      77.14462852      76.30382919      75.94289017      75.50532341      75.50619698      75.55095482      75.48132515      75.17485237      74.58961105      73.69158554      72.47670174      70.92067337      69.05141449      66.86081314      64.39575195      61.65763950      58.69110394      55.47438049      51.92859077      48.88920593      49.17807007      49.47347736      49.71229553      49.93727303      50.05569839      50.03948307      49.91447830      49.72458363      49.51723385      49.32456970      49.17744827      49.06250095      48.97364140      48.85044193      48.67329884      48.38218403      47.97351360      47.44157410      46.77826405      45.98149776      45.06001949      44.00960636      42.82731724      41.50480556      40.04701614      38.44771481      36.58585835      34.70114350      33.47934341      29.29211807      29.29211807      23.74958992      23.74958992      20.11955261      20.11955261
       106.34687805     106.09460449     105.69232941     105.04867744     104.12843704     102.90418625     101.35292625      99.45505905      97.18305969      94.59736633      91.81693268      89.10648346      86.68756104      84.53989220      82.73311996      81.04841423      79.29252434      77.48893738      75.89110947      73.91522408      72.50474739      70.97222519      71.78060722      72.44762039      72.82909393      72.93204308      72.70048141      72.10437584      71.13545609      69.85037422      68.24650192      66.34649467      64.15296841      61.73514271      59.09328651      56.22303963      53.12663555      49.96133327      47.49906731      46.59601974      46.39132977      46.73110580      46.83066082      46.71930790      46.50871754      46.22031212      45.96657467      45.76970291      45.68093014      45.73058319      45.84876156      45.94029331      45.95959663      45.84778118      45.57468891      45.14195251      44.54154110      43.79121017      42.89503384      41.86286736      40.70293713      39.41920471      38.00846291      36.47838020      34.80799484      33.02515030      30.97898817      29.29211807      26.27565956      23.74958992      20.11955261      20.11955261      17.02588463
       106.36669159     106.28644943     105.90569496     105.25918388     104.34261703     103.14333916     101.65946579      99.89232445      97.85799217      95.58859062      93.20384789      90.81368065      88.54991722      86.45367432      84.52003479      82.68471527      80.86518669      79.06731033      77.28759003      75.47845650      73.68161964      71.76864052      69.68404770      68.92217064      70.08768845      70.67301559      70.79194832      70.46696854      69.76879692      68.71186256      67.34484100      65.67958260      63.76424503      61.59904194      59.25539494      56.74836254      54.13352966      51.51929760      49.11048317      46.97022629      44.94789696      43.58854485      43.39452839      42.91806221      42.66696835      42.13375854      41.84992027      41.57053185      41.52027321      41.82476902      42.24319935      42.61337948      42.90377903      42.98054409      42.86881924      42.52814865      41.99171925      41.26920891      40.38468933      39.35996342      38.21306610      36.95529270      35.59804726      34.13181210      32.56848049      30.85545015      28.98723173      27.08230829      23.74958992      22.36495781      20.11955261      20.11955261      17.02588463
       106.45741463     106.44571495     106.06975746     105.42732048     104.52304840     103.36063194     101.94473839     100.29001808      98.41606903      96.37094307      94.20282173      92.02139282      89.87727928      87.81737328      85.84416389      83.93562698      82.06386185      80.21551895      78.37737846      76.52749825      74.65402031      72.70726967      70.66285515      68.53992844      67.62873840      68.50755692      68.90453720      68.82979202      68.34844589      67.50465202      66.33189201      64.88241959      63.16841888      61.26463318      59.16733265      56.94766235      54.64513874      52.35406685      50.16286182      48.08870316      46.08617496      44.13826370      42.37463665      40.53732204      39.12689495      37.63888931      37.51133347      36.50035954      36.27034187      37.27438068      38.10573864      38.91616154      39.50619698      39.85114098      39.87630272      39.63575745      39.13436413      38.41272640      37.51450157      36.47138786      35.32077885      34.07917786      32.76067066      31.36960793      29.91215229      28.37567806      26.72147036      24.95547199      23.06769323      21.94156396      20.11955261      17.02588463      15.80568409
       106.62762985     106.58078575     106.18514061     105.54239273     104.65299416     103.52113152     102.15748024     100.58428001      98.82833862      96.91029739      94.90031052      92.82848167      90.76454544      88.72740173      86.73618317      84.78899193      82.87362671      80.98397255      79.10294914      77.22076988      75.31689453      73.36845016      71.35314369      69.23971367      66.92765999      66.61311913      67.10312462      67.21956253      66.90636063      66.21866989      65.21289825      63.92282867      62.39978600      60.67553329      58.78980350      56.77372265      54.71289635      52.64375973      50.62906647      48.67712498      46.79391193      44.97074795      43.23576927      41.56133366      39.97505093      38.38684845      36.82707596      35.29757881      33.62361526      32.67286205      33.38682652      34.80891609      35.90849113      36.48298264      36.66124153      36.48292255      35.98257351      35.22126007      34.25226021      33.15917873      31.97678995      30.73328876      29.44179344      28.11675453      26.78257179      25.41179895      24.03121710      22.55325651      21.03233290      19.45707035      17.80286360      17.02588463      15.80568409
       106.75945663     106.63977242     106.23796463     105.59339714     104.71114349     103.59961891     102.27337837     100.75093842      99.06231499      97.23142433      95.29038048      93.29025459      91.26088905      89.23440933      87.22868729      85.25077057      83.29899597      81.37206459      79.46072197      77.55693626      75.64609146      73.71259117      71.73632050      69.69599915      67.55681038      65.48379135      65.32912636      65.64724350      65.45630836      64.88134003      63.98347187      62.82129192      61.42690849      59.83930779      58.10203075      56.25356960      54.35628319      52.45724297      50.58655262      48.76964283      46.99666500      45.27047157      43.59254360      41.95633030      40.36259937      38.78958321      37.23440838      35.68439293      34.09968948      32.46407843      30.77742100      30.77048159      32.20527887      32.97417450      33.27066898      33.12042236      32.56153774      31.66676569      30.56286049      29.36242151      28.11968040      26.84851122      25.56481266      24.29083157      23.06110096      21.90917969      20.78440714      19.67520428      18.50045729      17.37361813      16.25615501      15.46910667      15.49600315
       106.78582573     106.63181114     106.22139359     105.56984329     104.68689537     103.58283424     102.27187157     100.77474403      99.11641312      97.31713295      95.41015053      93.42810631      91.40520859      89.36783409      87.33735657      85.32594490      83.33846474      81.37924194      79.44279099      77.52721024      75.62164497      73.71731186      71.80405235      69.86112213      67.89723396      65.90295219      64.02777767      64.15428162      63.99373436      63.46045589      62.62023354      61.53173065      60.23611641      58.75035858      57.10468292      55.35914421      53.56702805      51.78090477      50.05447483      48.36123276      46.70742512      45.07006073      43.45370102      41.84416866      40.27072906      38.70968914      37.15632534      35.64240551      34.14446831      32.63609982      31.06258535      29.41195154      28.19294214      29.39315033      29.77075481      29.60906219      28.91563988      27.76466799      26.34334850      24.98420095      23.65744019      22.34181309      21.03505659      19.76813459      18.62618208      17.73914576      16.96737766      16.16990328      15.38748503      14.62551856      13.94543433      13.49338889      13.19070244
       106.74855042     106.56211853     106.13309479     105.46523285     104.57227707     103.46021271     102.14578056     100.64659309      98.98483467      97.17999840      95.26220322      93.26203346      91.21373749      89.14289093      87.07130432      85.01241112      82.98807907      80.99340248      79.03748894      77.11358643      75.22013283      73.35137558      71.49807739      69.67992592      67.86141014      66.03335190      64.23449516      62.78533077      62.52678585      61.94315720      61.10305309      60.05259323      58.83075905      57.40172386      55.78913689      54.08146763      52.31761837      50.63338470      49.02726364      47.48071861      45.94344330      44.41116905      42.85239697      41.22850609      39.69616318      38.17199993      36.55026054      35.11006832      33.69882011      32.39349985      30.98392057      29.50845528      27.99663019      26.53583336      26.18265390      26.06692457      25.10880423      23.56617546      21.30992222      19.87457085      18.49294376      17.12354159      15.75659752      14.41175842      13.16516995      12.84250140      12.41345072      12.06873679      11.61143494      11.19534731      10.75852776      10.43094683      10.75050068