# File generated by Flopy version 3.8.0 on 08/23/2024 at 19:20:36.
BEGIN options
  READASARRAYS
END options

BEGIN period  1
  recharge
    CONSTANT  1.00000000E-06
END period  1

