# File generated by Flopy version 3.8.0 on 08/23/2024 at 19:20:36.
BEGIN options
  PRINT_INPUT
  SAVE_FLOWS
  NEWTON  UNDER_RELAXATION
END options

BEGIN packages
  DIS6  model.dis  dis
  IC6  model.ic  ic
  NPF6  model.npf  npf
  RCH6  model.rcha  rcha_0
  DRN6  drn_riv.drn  river
  DRN6  drn_gwd.drn  gwd
  OC6  model.oc  oc
END packages

