# File generated by Flopy version 3.8.0 on 08/23/2024 at 19:20:36.
BEGIN options
END options

BEGIN dimensions
  NPER  1
END dimensions

BEGIN perioddata
       1.00000000  1       1.00000000
END perioddata

