# File generated by Flopy version 3.9.0.dev0 on 09/06/2024 at 07:54:41.
BEGIN options
  CONCENTRATION  FILEOUT  trans.ucn
END options

BEGIN period  1
  SAVE  CONCENTRATION  LAST
  PRINT  BUDGET  ALL
END period  1

