# File generated by Flopy version 3.9.0.dev0 on 09/06/2024 at 07:54:41.
BEGIN options
END options

BEGIN griddata
  diffc
    CONSTANT       0.00000000
  alh
    CONSTANT      75.00000000
  ath1
    CONSTANT       7.50000000
END griddata

