# File generated by Flopy version 3.8.0 on 09/06/2024 at 08:27:24.
BEGIN options
END options

BEGIN dimensions
  maxbound 1
END dimensions

BEGIN PERIOD 1
END PERIOD 1
