# File generated by Flopy version 3.9.0.dev0 on 09/06/2024 at 07:54:41.
BEGIN options
END options

BEGIN sources
  LAK-1  AUX  CONCENTRATION
END sources

