# File generated by Flopy version 3.8.0 on 09/06/2024 at 08:27:23.
BEGIN options
  EXPORT_NETCDF  mesh
END options

BEGIN packages
  disv6  trans.disv  disv
  ic6  trans.ic  ic
  adv6  trans.adv  adv
  cnc6  trans.cnc cnc
  dsp6  trans.dsp  dsp
  mst6  trans.mst  mst
  fmi6  trans.fmi  fmi
  ssm6  trans.ssm  ssm
  oc6  trans.oc  oc
END packages

