# File generated by Flopy version 3.9.0.dev0 on 09/03/2024 at 16:56:55.
BEGIN options
  BUDGET  FILEOUT  ex-gwf-advtidal.cbc
  HEAD  FILEOUT  ex-gwf-advtidal.hds
END options

BEGIN period  1
  SAVE  HEAD  ALL
  SAVE  BUDGET  ALL
END period  1

