# File generated by Flopy version 3.9.0.dev0 on 09/03/2024 at 16:56:55.
BEGIN options
END options

BEGIN griddata
  strt
    CONSTANT      50.00000000
END griddata

