# File generated by Flopy version 3.9.0.dev0 on 09/03/2024 at 16:56:55.
BEGIN options
END options

BEGIN nonlinear
  OUTER_DVCLOSE  1.00000000E-09
  OUTER_MAXIMUM  50
END nonlinear

BEGIN linear
  INNER_MAXIMUM  100
  INNER_DVCLOSE  1.00000000E-09
  inner_rclose  1.00000000E-06  strict
END linear

