# File generated by Flopy version 3.9.0.dev0 on 09/06/2024 at 07:54:40.
BEGIN options
  TIME_UNITS  days
END options

BEGIN dimensions
  NPER  1
END dimensions

BEGIN perioddata
   10957.50000000  1       1.00000000
END perioddata

