# File generated by Flopy version 3.9.0.dev0 on 09/06/2024 at 07:54:40.
BEGIN options
  auxiliary  concentration
  PRINT_STAGE
  PRINT_FLOWS
  STAGE  FILEOUT  flow.lak.stage.bin
  BUDGET  FILEOUT  flow.lak.cbc
  TIME_CONVERSION   86400.00000000
  LENGTH_CONVERSION       1.00000000
END options

BEGIN dimensions
  NLAKES  1
END dimensions

BEGIN packagedata
  1       3.44427138  1464       1.00000000
END packagedata

BEGIN connectiondata
  1  1  1 437  vertical  0.0013       0.00000000       0.00000000       0.00000000       0.00000000
  1  2  1 438  vertical  0.0013       0.00000000       0.00000000       0.00000000       0.00000000
  1  3  1 439  vertical  0.0013       0.00000000       0.00000000       0.00000000       0.00000000
  1  4  1 440  vertical  0.0013       0.00000000       0.00000000       0.00000000       0.00000000
  1  5  1 441  vertical  0.0013       0.00000000       0.00000000       0.00000000       0.00000000
  1  6  1 442  vertical  0.0013       0.00000000       0.00000000       0.00000000       0.00000000
  1  7  1 443  vertical  0.0013       0.00000000       0.00000000       0.00000000       0.00000000
  1  8  1 444  vertical  0.0013       0.00000000       0.00000000       0.00000000       0.00000000
  1  9  1 445  vertical  0.0013       0.00000000       0.00000000       0.00000000       0.00000000
  1  10  1 446  vertical  0.0013       0.00000000       0.00000000       0.00000000       0.00000000
  1  11  1 452  vertical  0.0013       0.00000000       0.00000000       0.00000000       0.00000000
  1  12  1 453  vertical  0.0013       0.00000000       0.00000000       0.00000000       0.00000000
  1  13  1 454  vertical  0.0013       0.00000000       0.00000000       0.00000000       0.00000000
  1  14  1 455  vertical  0.0013       0.00000000       0.00000000       0.00000000       0.00000000
  1  15  1 456  vertical  0.0013       0.00000000       0.00000000       0.00000000       0.00000000
  1  16  1 457  vertical  0.0013       0.00000000       0.00000000       0.00000000       0.00000000
  1  17  1 458  vertical  0.0013       0.00000000       0.00000000       0.00000000       0.00000000
  1  18  1 459  vertical  0.0013       0.00000000       0.00000000       0.00000000       0.00000000
  1  19  1 460  vertical  0.0013       0.00000000       0.00000000       0.00000000       0.00000000
  1  20  1 461  vertical  0.0013       0.00000000       0.00000000       0.00000000       0.00000000
  1  21  1 462  vertical  0.0013       0.00000000       0.00000000       0.00000000       0.00000000
  1  22  1 463  vertical  0.0013       0.00000000       0.00000000       0.00000000       0.00000000
  1  23  1 464  vertical  0.0013       0.00000000       0.00000000       0.00000000       0.00000000
  1  24  1 465  vertical  0.0013       0.00000000       0.00000000       0.00000000       0.00000000
  1  25  1 466  vertical  0.0013       0.00000000       0.00000000       0.00000000       0.00000000
  1  26  1 467  vertical  0.0013       0.00000000       0.00000000       0.00000000       0.00000000
  1  27  1 474  vertical  0.0013       0.00000000       0.00000000       0.00000000       0.00000000
  1  28  1 475  vertical  0.0013       0.00000000       0.00000000       0.00000000       0.00000000
  1  29  1 476  vertical  0.0013       0.00000000       0.00000000       0.00000000       0.00000000
  1  30  1 477  vertical  0.0013       0.00000000       0.00000000       0.00000000       0.00000000
  1  31  1 478  vertical  0.0013       0.00000000       0.00000000       0.00000000       0.00000000
  1  32  1 479  vertical  0.0013       0.00000000       0.00000000       0.00000000       0.00000000
  1  33  1 480  vertical  0.0013       0.00000000       0.00000000       0.00000000       0.00000000
  1  34  1 481  vertical  0.0013       0.00000000       0.00000000       0.00000000       0.00000000
  1  35  1 482  vertical  0.0013       0.00000000       0.00000000       0.00000000       0.00000000
  1  36  1 483  vertical  0.0013       0.00000000       0.00000000       0.00000000       0.00000000
  1  37  1 484  vertical  0.0013       0.00000000       0.00000000       0.00000000       0.00000000
  1  38  1 491  vertical  0.0013       0.00000000       0.00000000       0.00000000       0.00000000
  1  39  1 492  vertical  0.0013       0.00000000       0.00000000       0.00000000       0.00000000
  1  40  1 493  vertical  0.0013       0.00000000       0.00000000       0.00000000       0.00000000
  1  41  1 494  vertical  0.0013       0.00000000       0.00000000       0.00000000       0.00000000
  1  42  1 495  vertical  0.0013       0.00000000       0.00000000       0.00000000       0.00000000
  1  43  1 496  vertical  0.0013       0.00000000       0.00000000       0.00000000       0.00000000
  1  44  1 497  vertical  0.0013       0.00000000       0.00000000       0.00000000       0.00000000
  1  45  1 498  vertical  0.0013       0.00000000       0.00000000       0.00000000       0.00000000
  1  46  1 499  vertical  0.0013       0.00000000       0.00000000       0.00000000       0.00000000
  1  47  1 500  vertical  0.0013       0.00000000       0.00000000       0.00000000       0.00000000
  1  48  1 501  vertical  0.0013       0.00000000       0.00000000       0.00000000       0.00000000
  1  49  1 502  vertical  0.0013       0.00000000       0.00000000       0.00000000       0.00000000
  1  50  1 503  vertical  0.0013       0.00000000       0.00000000       0.00000000       0.00000000
  1  51  1 504  vertical  0.0013       0.00000000       0.00000000       0.00000000       0.00000000
  1  52  1 505  vertical  0.0013       0.00000000       0.00000000       0.00000000       0.00000000
  1  53  1 506  vertical  0.0013       0.00000000       0.00000000       0.00000000       0.00000000
  1  54  1 507  vertical  0.0013       0.00000000       0.00000000       0.00000000       0.00000000
  1  55  1 508  vertical  0.0013       0.00000000       0.00000000       0.00000000       0.00000000
  1  56  1 509  vertical  0.0013       0.00000000       0.00000000       0.00000000       0.00000000
  1  57  1 510  vertical  0.0013       0.00000000       0.00000000       0.00000000       0.00000000
  1  58  1 511  vertical  0.0013       0.00000000       0.00000000       0.00000000       0.00000000
  1  59  1 512  vertical  0.0013       0.00000000       0.00000000       0.00000000       0.00000000
  1  60  1 513  vertical  0.0013       0.00000000       0.00000000       0.00000000       0.00000000
  1  61  1 514  vertical  0.0013       0.00000000       0.00000000       0.00000000       0.00000000
  1  62  1 515  vertical  0.0013       0.00000000       0.00000000       0.00000000       0.00000000
  1  63  1 516  vertical  0.0013       0.00000000       0.00000000       0.00000000       0.00000000
  1  64  1 517  vertical  0.0013       0.00000000       0.00000000       0.00000000       0.00000000
  1  65  1 518  vertical  0.0013       0.00000000       0.00000000       0.00000000       0.00000000
  1  66  1 519  vertical  0.0013       0.00000000       0.00000000       0.00000000       0.00000000
  1  67  1 520  vertical  0.0013       0.00000000       0.00000000       0.00000000       0.00000000
  1  68  1 521  vertical  0.0013       0.00000000       0.00000000       0.00000000       0.00000000
  1  69  1 522  vertical  0.0013       0.00000000       0.00000000       0.00000000       0.00000000
  1  70  1 523  vertical  0.0013       0.00000000       0.00000000       0.00000000       0.00000000
  1  71  1 524  vertical  0.0013       0.00000000       0.00000000       0.00000000       0.00000000
  1  72  1 525  vertical  0.0013       0.00000000       0.00000000       0.00000000       0.00000000
  1  73  1 526  vertical  0.0013       0.00000000       0.00000000       0.00000000       0.00000000
  1  74  1 527  vertical  0.0013       0.00000000       0.00000000       0.00000000       0.00000000
  1  75  1 528  vertical  0.0013       0.00000000       0.00000000       0.00000000       0.00000000
  1  76  1 529  vertical  0.0013       0.00000000       0.00000000       0.00000000       0.00000000
  1  77  1 530  vertical  0.0013       0.00000000       0.00000000       0.00000000       0.00000000
  1  78  1 531  vertical  0.0013       0.00000000       0.00000000       0.00000000       0.00000000
  1  79  1 532  vertical  0.0013       0.00000000       0.00000000       0.00000000       0.00000000
  1  80  1 533  vertical  0.0013       0.00000000       0.00000000       0.00000000       0.00000000
  1  81  1 534  vertical  0.0013       0.00000000       0.00000000       0.00000000       0.00000000
  1  82  1 535  vertical  0.0013       0.00000000       0.00000000       0.00000000       0.00000000
  1  83  1 536  vertical  0.0013       0.00000000       0.00000000       0.00000000       0.00000000
  1  84  1 543  vertical  0.0013       0.00000000       0.00000000       0.00000000       0.00000000
  1  85  1 544  vertical  0.0013       0.00000000       0.00000000       0.00000000       0.00000000
  1  86  1 545  vertical  0.0013       0.00000000       0.00000000       0.00000000       0.00000000
  1  87  1 546  vertical  0.0013       0.00000000       0.00000000       0.00000000       0.00000000
  1  88  1 547  vertical  0.0013       0.00000000       0.00000000       0.00000000       0.00000000
  1  89  1 548  vertical  0.0013       0.00000000       0.00000000       0.00000000       0.00000000
  1  90  1 549  vertical  0.0013       0.00000000       0.00000000       0.00000000       0.00000000
  1  91  1 550  vertical  0.0013       0.00000000       0.00000000       0.00000000       0.00000000
  1  92  1 551  vertical  0.0013       0.00000000       0.00000000       0.00000000       0.00000000
  1  93  1 552  vertical  0.0013       0.00000000       0.00000000       0.00000000       0.00000000
  1  94  1 553  vertical  0.0013       0.00000000       0.00000000       0.00000000       0.00000000
  1  95  1 554  vertical  0.0013       0.00000000       0.00000000       0.00000000       0.00000000
  1  96  1 555  vertical  0.0013       0.00000000       0.00000000       0.00000000       0.00000000
  1  97  1 556  vertical  0.0013       0.00000000       0.00000000       0.00000000       0.00000000
  1  98  1 557  vertical  0.0013       0.00000000       0.00000000       0.00000000       0.00000000
  1  99  1 558  vertical  0.0013       0.00000000       0.00000000       0.00000000       0.00000000
  1  100  1 559  vertical  0.0013       0.00000000       0.00000000       0.00000000       0.00000000
  1  101  1 560  vertical  0.0013       0.00000000       0.00000000       0.00000000       0.00000000
  1  102  1 561  vertical  0.0013       0.00000000       0.00000000       0.00000000       0.00000000
  1  103  1 562  vertical  0.0013       0.00000000       0.00000000       0.00000000       0.00000000
  1  104  1 563  vertical  0.0013       0.00000000       0.00000000       0.00000000       0.00000000
  1  105  1 564  vertical  0.0013       0.00000000       0.00000000       0.00000000       0.00000000
  1  106  1 565  vertical  0.0013       0.00000000       0.00000000       0.00000000       0.00000000
  1  107  1 566  vertical  0.0013       0.00000000       0.00000000       0.00000000       0.00000000
  1  108  1 567  vertical  0.0013       0.00000000       0.00000000       0.00000000       0.00000000
  1  109  1 568  vertical  0.0013       0.00000000       0.00000000       0.00000000       0.00000000
  1  110  1 569  vertical  0.0013       0.00000000       0.00000000       0.00000000       0.00000000
  1  111  1 570  vertical  0.0013       0.00000000       0.00000000       0.00000000       0.00000000
  1  112  1 582  vertical  0.0013       0.00000000       0.00000000       0.00000000       0.00000000
  1  113  1 583  vertical  0.0013       0.00000000       0.00000000       0.00000000       0.00000000
  1  114  1 584  vertical  0.0013       0.00000000       0.00000000       0.00000000       0.00000000
  1  115  1 585  vertical  0.0013       0.00000000       0.00000000       0.00000000       0.00000000
  1  116  1 586  vertical  0.0013       0.00000000       0.00000000       0.00000000       0.00000000
  1  117  1 587  vertical  0.0013       0.00000000       0.00000000       0.00000000       0.00000000
  1  118  1 604  vertical  0.0013       0.00000000       0.00000000       0.00000000       0.00000000
  1  119  1 605  vertical  0.0013       0.00000000       0.00000000       0.00000000       0.00000000
  1  120  1 606  vertical  0.0013       0.00000000       0.00000000       0.00000000       0.00000000
  1  121  1 607  vertical  0.0013       0.00000000       0.00000000       0.00000000       0.00000000
  1  122  1 608  vertical  0.0013       0.00000000       0.00000000       0.00000000       0.00000000
  1  123  1 847  vertical  0.0013       0.00000000       0.00000000       0.00000000       0.00000000
  1  124  1 849  vertical  0.0013       0.00000000       0.00000000       0.00000000       0.00000000
  1  125  1 851  vertical  0.0013       0.00000000       0.00000000       0.00000000       0.00000000
  1  126  1 852  vertical  0.0013       0.00000000       0.00000000       0.00000000       0.00000000
  1  127  1 853  vertical  0.0013       0.00000000       0.00000000       0.00000000       0.00000000
  1  128  1 855  vertical  0.0013       0.00000000       0.00000000       0.00000000       0.00000000
  1  129  1 859  vertical  0.0013       0.00000000       0.00000000       0.00000000       0.00000000
  1  130  1 861  vertical  0.0013       0.00000000       0.00000000       0.00000000       0.00000000
  1  131  1 862  vertical  0.0013       0.00000000       0.00000000       0.00000000       0.00000000
  1  132  1 863  vertical  0.0013       0.00000000       0.00000000       0.00000000       0.00000000
  1  133  1 866  vertical  0.0013       0.00000000       0.00000000       0.00000000       0.00000000
  1  134  1 868  vertical  0.0013       0.00000000       0.00000000       0.00000000       0.00000000
  1  135  1 869  vertical  0.0013       0.00000000       0.00000000       0.00000000       0.00000000
  1  136  1 870  vertical  0.0013       0.00000000       0.00000000       0.00000000       0.00000000
  1  137  1 873  vertical  0.0013       0.00000000       0.00000000       0.00000000       0.00000000
  1  138  1 875  vertical  0.0013       0.00000000       0.00000000       0.00000000       0.00000000
  1  139  1 877  vertical  0.0013       0.00000000       0.00000000       0.00000000       0.00000000
  1  140  1 880  vertical  0.0013       0.00000000       0.00000000       0.00000000       0.00000000
  1  141  1 886  vertical  0.0013       0.00000000       0.00000000       0.00000000       0.00000000
  1  142  1 887  vertical  0.0013       0.00000000       0.00000000       0.00000000       0.00000000
  1  143  1 889  vertical  0.0013       0.00000000       0.00000000       0.00000000       0.00000000
  1  144  1 891  vertical  0.0013       0.00000000       0.00000000       0.00000000       0.00000000
  1  145  1 894  vertical  0.0013       0.00000000       0.00000000       0.00000000       0.00000000
  1  146  1 900  vertical  0.0013       0.00000000       0.00000000       0.00000000       0.00000000
  1  147  1 901  vertical  0.0013       0.00000000       0.00000000       0.00000000       0.00000000
  1  148  1 902  vertical  0.0013       0.00000000       0.00000000       0.00000000       0.00000000
  1  149  1 903  vertical  0.0013       0.00000000       0.00000000       0.00000000       0.00000000
  1  150  1 905  vertical  0.0013       0.00000000       0.00000000       0.00000000       0.00000000
  1  151  1 906  vertical  0.0013       0.00000000       0.00000000       0.00000000       0.00000000
  1  152  1 908  vertical  0.0013       0.00000000       0.00000000       0.00000000       0.00000000
  1  153  1 909  vertical  0.0013       0.00000000       0.00000000       0.00000000       0.00000000
  1  154  1 910  vertical  0.0013       0.00000000       0.00000000       0.00000000       0.00000000
  1  155  1 913  vertical  0.0013       0.00000000       0.00000000       0.00000000       0.00000000
  1  156  1 916  vertical  0.0013       0.00000000       0.00000000       0.00000000       0.00000000
  1  157  1 920  vertical  0.0013       0.00000000       0.00000000       0.00000000       0.00000000
  1  158  1 928  vertical  0.0013       0.00000000       0.00000000       0.00000000       0.00000000
  1  159  1 929  vertical  0.0013       0.00000000       0.00000000       0.00000000       0.00000000
  1  160  1 930  vertical  0.0013       0.00000000       0.00000000       0.00000000       0.00000000
  1  161  1 931  vertical  0.0013       0.00000000       0.00000000       0.00000000       0.00000000
  1  162  1 933  vertical  0.0013       0.00000000       0.00000000       0.00000000       0.00000000
  1  163  1 934  vertical  0.0013       0.00000000       0.00000000       0.00000000       0.00000000
  1  164  1 935  vertical  0.0013       0.00000000       0.00000000       0.00000000       0.00000000
  1  165  1 936  vertical  0.0013       0.00000000       0.00000000       0.00000000       0.00000000
  1  166  1 947  vertical  0.0013       0.00000000       0.00000000       0.00000000       0.00000000
  1  167  1 949  vertical  0.0013       0.00000000       0.00000000       0.00000000       0.00000000
  1  168  1 950  vertical  0.0013       0.00000000       0.00000000       0.00000000       0.00000000
  1  169  1 951  vertical  0.0013       0.00000000       0.00000000       0.00000000       0.00000000
  1  170  1 952  vertical  0.0013       0.00000000       0.00000000       0.00000000       0.00000000
  1  171  1 953  vertical  0.0013       0.00000000       0.00000000       0.00000000       0.00000000
  1  172  1 954  vertical  0.0013       0.00000000       0.00000000       0.00000000       0.00000000
  1  173  1 955  vertical  0.0013       0.00000000       0.00000000       0.00000000       0.00000000
  1  174  1 958  vertical  0.0013       0.00000000       0.00000000       0.00000000       0.00000000
  1  175  1 959  vertical  0.0013       0.00000000       0.00000000       0.00000000       0.00000000
  1  176  1 960  vertical  0.0013       0.00000000       0.00000000       0.00000000       0.00000000
  1  177  1 962  vertical  0.0013       0.00000000       0.00000000       0.00000000       0.00000000
  1  178  1 963  vertical  0.0013       0.00000000       0.00000000       0.00000000       0.00000000
  1  179  1 965  vertical  0.0013       0.00000000       0.00000000       0.00000000       0.00000000
  1  180  1 967  vertical  0.0013       0.00000000       0.00000000       0.00000000       0.00000000
  1  181  1 968  vertical  0.0013       0.00000000       0.00000000       0.00000000       0.00000000
  1  182  1 969  vertical  0.0013       0.00000000       0.00000000       0.00000000       0.00000000
  1  183  1 970  vertical  0.0013       0.00000000       0.00000000       0.00000000       0.00000000
  1  184  1 972  vertical  0.0013       0.00000000       0.00000000       0.00000000       0.00000000
  1  185  1 973  vertical  0.0013       0.00000000       0.00000000       0.00000000       0.00000000
  1  186  1 974  vertical  0.0013       0.00000000       0.00000000       0.00000000       0.00000000
  1  187  1 975  vertical  0.0013       0.00000000       0.00000000       0.00000000       0.00000000
  1  188  1 976  vertical  0.0013       0.00000000       0.00000000       0.00000000       0.00000000
  1  189  1 977  vertical  0.0013       0.00000000       0.00000000       0.00000000       0.00000000
  1  190  1 980  vertical  0.0013       0.00000000       0.00000000       0.00000000       0.00000000
  1  191  1 981  vertical  0.0013       0.00000000       0.00000000       0.00000000       0.00000000
  1  192  1 982  vertical  0.0013       0.00000000       0.00000000       0.00000000       0.00000000
  1  193  1 983  vertical  0.0013       0.00000000       0.00000000       0.00000000       0.00000000
  1  194  1 987  vertical  0.0013       0.00000000       0.00000000       0.00000000       0.00000000
  1  195  1 989  vertical  0.0013       0.00000000       0.00000000       0.00000000       0.00000000
  1  196  1 991  vertical  0.0013       0.00000000       0.00000000       0.00000000       0.00000000
  1  197  1 994  vertical  0.0013       0.00000000       0.00000000       0.00000000       0.00000000
  1  198  1 1002  vertical  0.0013       0.00000000       0.00000000       0.00000000       0.00000000
  1  199  1 1003  vertical  0.0013       0.00000000       0.00000000       0.00000000       0.00000000
  1  200  1 1004  vertical  0.0013       0.00000000       0.00000000       0.00000000       0.00000000
  1  201  1 1005  vertical  0.0013       0.00000000       0.00000000       0.00000000       0.00000000
  1  202  1 1006  vertical  0.0013       0.00000000       0.00000000       0.00000000       0.00000000
  1  203  1 1014  vertical  0.0013       0.00000000       0.00000000       0.00000000       0.00000000
  1  204  1 1017  vertical  0.0013       0.00000000       0.00000000       0.00000000       0.00000000
  1  205  1 1018  vertical  0.0013       0.00000000       0.00000000       0.00000000       0.00000000
  1  206  1 1019  vertical  0.0013       0.00000000       0.00000000       0.00000000       0.00000000
  1  207  1 1020  vertical  0.0013       0.00000000       0.00000000       0.00000000       0.00000000
  1  208  1 1021  vertical  0.0013       0.00000000       0.00000000       0.00000000       0.00000000
  1  209  1 1022  vertical  0.0013       0.00000000       0.00000000       0.00000000       0.00000000
  1  210  1 1028  vertical  0.0013       0.00000000       0.00000000       0.00000000       0.00000000
  1  211  1 1029  vertical  0.0013       0.00000000       0.00000000       0.00000000       0.00000000
  1  212  1 1030  vertical  0.0013       0.00000000       0.00000000       0.00000000       0.00000000
  1  213  1 1034  vertical  0.0013       0.00000000       0.00000000       0.00000000       0.00000000
  1  214  1 1039  vertical  0.0013       0.00000000       0.00000000       0.00000000       0.00000000
  1  215  1 1042  vertical  0.0013       0.00000000       0.00000000       0.00000000       0.00000000
  1  216  1 1043  vertical  0.0013       0.00000000       0.00000000       0.00000000       0.00000000
  1  217  1 1045  vertical  0.0013       0.00000000       0.00000000       0.00000000       0.00000000
  1  218  1 1046  vertical  0.0013       0.00000000       0.00000000       0.00000000       0.00000000
  1  219  1 1047  vertical  0.0013       0.00000000       0.00000000       0.00000000       0.00000000
  1  220  1 1048  vertical  0.0013       0.00000000       0.00000000       0.00000000       0.00000000
  1  221  1 1050  vertical  0.0013       0.00000000       0.00000000       0.00000000       0.00000000
  1  222  1 1051  vertical  0.0013       0.00000000       0.00000000       0.00000000       0.00000000
  1  223  1 1053  vertical  0.0013       0.00000000       0.00000000       0.00000000       0.00000000
  1  224  1 1054  vertical  0.0013       0.00000000       0.00000000       0.00000000       0.00000000
  1  225  1 1055  vertical  0.0013       0.00000000       0.00000000       0.00000000       0.00000000
  1  226  1 1056  vertical  0.0013       0.00000000       0.00000000       0.00000000       0.00000000
  1  227  1 1057  vertical  0.0013       0.00000000       0.00000000       0.00000000       0.00000000
  1  228  1 1074  vertical  0.0013       0.00000000       0.00000000       0.00000000       0.00000000
  1  229  1 1075  vertical  0.0013       0.00000000       0.00000000       0.00000000       0.00000000
  1  230  1 1083  vertical  0.0013       0.00000000       0.00000000       0.00000000       0.00000000
  1  231  1 1084  vertical  0.0013       0.00000000       0.00000000       0.00000000       0.00000000
  1  232  1 1087  vertical  0.0013       0.00000000       0.00000000       0.00000000       0.00000000
  1  233  1 1090  vertical  0.0013       0.00000000       0.00000000       0.00000000       0.00000000
  1  234  1 1091  vertical  0.0013       0.00000000       0.00000000       0.00000000       0.00000000
  1  235  1 1092  vertical  0.0013       0.00000000       0.00000000       0.00000000       0.00000000
  1  236  1 1093  vertical  0.0013       0.00000000       0.00000000       0.00000000       0.00000000
  1  237  1 1095  vertical  0.0013       0.00000000       0.00000000       0.00000000       0.00000000
  1  238  1 1096  vertical  0.0013       0.00000000       0.00000000       0.00000000       0.00000000
  1  239  1 1103  vertical  0.0013       0.00000000       0.00000000       0.00000000       0.00000000
  1  240  1 1106  vertical  0.0013       0.00000000       0.00000000       0.00000000       0.00000000
  1  241  1 1107  vertical  0.0013       0.00000000       0.00000000       0.00000000       0.00000000
  1  242  1 1121  vertical  0.0013       0.00000000       0.00000000       0.00000000       0.00000000
  1  243  1 1122  vertical  0.0013       0.00000000       0.00000000       0.00000000       0.00000000
  1  244  1 1123  vertical  0.0013       0.00000000       0.00000000       0.00000000       0.00000000
  1  245  1 1124  vertical  0.0013       0.00000000       0.00000000       0.00000000       0.00000000
  1  246  1 1131  vertical  0.0013       0.00000000       0.00000000       0.00000000       0.00000000
  1  247  1 1138  vertical  0.0013       0.00000000       0.00000000       0.00000000       0.00000000
  1  248  1 1139  vertical  0.0013       0.00000000       0.00000000       0.00000000       0.00000000
  1  249  1 1168  vertical  0.0013       0.00000000       0.00000000       0.00000000       0.00000000
  1  250  1 1172  vertical  0.0013       0.00000000       0.00000000       0.00000000       0.00000000
  1  251  1 1173  vertical  0.0013       0.00000000       0.00000000       0.00000000       0.00000000
  1  252  1 1174  vertical  0.0013       0.00000000       0.00000000       0.00000000       0.00000000
  1  253  1 1176  vertical  0.0013       0.00000000       0.00000000       0.00000000       0.00000000
  1  254  1 1177  vertical  0.0013       0.00000000       0.00000000       0.00000000       0.00000000
  1  255  1 1188  vertical  0.0013       0.00000000       0.00000000       0.00000000       0.00000000
  1  256  1 1192  vertical  0.0013       0.00000000       0.00000000       0.00000000       0.00000000
  1  257  1 1194  vertical  0.0013       0.00000000       0.00000000       0.00000000       0.00000000
  1  258  1 1195  vertical  0.0013       0.00000000       0.00000000       0.00000000       0.00000000
  1  259  1 1196  vertical  0.0013       0.00000000       0.00000000       0.00000000       0.00000000
  1  260  1 1272  vertical  0.0013       0.00000000       0.00000000       0.00000000       0.00000000
  1  261  1 1273  vertical  0.0013       0.00000000       0.00000000       0.00000000       0.00000000
  1  262  1 1326  vertical  0.0013       0.00000000       0.00000000       0.00000000       0.00000000
  1  263  1 1375  vertical  0.0013       0.00000000       0.00000000       0.00000000       0.00000000
  1  264  1 1378  vertical  0.0013       0.00000000       0.00000000       0.00000000       0.00000000
  1  265  1 1393  vertical  0.0013       0.00000000       0.00000000       0.00000000       0.00000000
  1  266  1 1394  vertical  0.0013       0.00000000       0.00000000       0.00000000       0.00000000
  1  267  1 1422  vertical  0.0013       0.00000000       0.00000000       0.00000000       0.00000000
  1  268  1 1462  vertical  0.0013       0.00000000       0.00000000       0.00000000       0.00000000
  1  269  1 1480  vertical  0.0013       0.00000000       0.00000000       0.00000000       0.00000000
  1  270  1 1552  vertical  0.0013       0.00000000       0.00000000       0.00000000       0.00000000
  1  271  1 1553  vertical  0.0013       0.00000000       0.00000000       0.00000000       0.00000000
  1  272  1 1554  vertical  0.0013       0.00000000       0.00000000       0.00000000       0.00000000
  1  273  1 1555  vertical  0.0013       0.00000000       0.00000000       0.00000000       0.00000000
  1  274  1 1556  vertical  0.0013       0.00000000       0.00000000       0.00000000       0.00000000
  1  275  1 1557  vertical  0.0013       0.00000000       0.00000000       0.00000000       0.00000000
  1  276  1 1558  vertical  0.0013       0.00000000       0.00000000       0.00000000       0.00000000
  1  277  1 1559  vertical  0.0013       0.00000000       0.00000000       0.00000000       0.00000000
  1  278  1 1561  vertical  0.0013       0.00000000       0.00000000       0.00000000       0.00000000
  1  279  1 1564  vertical  0.0013       0.00000000       0.00000000       0.00000000       0.00000000
  1  280  1 1598  vertical  0.0013       0.00000000       0.00000000       0.00000000       0.00000000
  1  281  1 1601  vertical  0.0013       0.00000000       0.00000000       0.00000000       0.00000000
  1  282  1 1606  vertical  0.0013       0.00000000       0.00000000       0.00000000       0.00000000
  1  283  1 1607  vertical  0.0013       0.00000000       0.00000000       0.00000000       0.00000000
  1  284  1 1886  vertical  0.0013       0.00000000       0.00000000       0.00000000       0.00000000
  1  285  1 1887  vertical  0.0013       0.00000000       0.00000000       0.00000000       0.00000000
  1  286  1 1888  vertical  0.0013       0.00000000       0.00000000       0.00000000       0.00000000
  1  287  1 1889  vertical  0.0013       0.00000000       0.00000000       0.00000000       0.00000000
  1  288  1 1891  vertical  0.0013       0.00000000       0.00000000       0.00000000       0.00000000
  1  289  1 2497  vertical  0.0013       0.00000000       0.00000000       0.00000000       0.00000000