# File generated by Flopy version 3.9.0.dev0 on 09/06/2024 at 07:54:40.
BEGIN options
END options

BEGIN griddata
  strt
    CONSTANT      11.00000000
END griddata

