# File generated by Flopy version 3.9.0.dev0 on 09/06/2024 at 07:54:40.
BEGIN options
  auxiliary  depth
  AUXDEPTHNAME  depth
END options

BEGIN dimensions
  MAXBOUND  1464
END dimensions

BEGIN period  1
  1 437 3.50445281E+00 6.19810422E+01 -3.04800000E-01
  1 438 3.41985282E+00 1.25370489E+02 -3.04800000E-01
  1 439 3.37416673E+00 1.14674894E+02 -3.04800000E-01
  1 440 3.37416673E+00 1.01394396E+02 -3.04800000E-01
  1 441 3.37416673E+00 9.88392339E+01 -3.04800000E-01
  1 442 3.37195886E+00 8.77570036E+01 -3.04800000E-01
  1 443 3.36955888E+00 9.88392339E+01 -3.04800000E-01
  1 444 3.36579114E+00 9.70457585E+01 -3.04800000E-01
  1 445 3.35979112E+00 1.03787892E+02 -3.04800000E-01
  1 446 3.35379110E+00 1.18624432E+02 -3.04800000E-01
  1 452 3.33049067E+00 8.89513524E+01 -3.04800000E-01
  1 453 3.30109069E+00 1.11882298E+02 -3.04800000E-01
  1 454 3.28092383E+00 1.18624432E+02 -3.04800000E-01
  1 455 3.29352381E+00 8.89513524E+01 -3.04800000E-01
  1 456 3.30612379E+00 8.39950490E+01 -3.04800000E-01
  1 457 3.31015813E+00 9.82909344E+01 -3.04800000E-01
  1 458 3.31015813E+00 9.88392339E+01 -3.04800000E-01
  1 459 3.31015813E+00 8.89513524E+01 -3.04800000E-01
  1 460 3.31015813E+00 1.11882298E+02 -3.04800000E-01
  1 461 3.31015813E+00 1.11151977E+02 -3.04800000E-01
  1 462 3.30332078E+00 8.34113639E+01 -3.04800000E-01
  1 463 3.29192077E+00 8.41766943E+01 -3.04800000E-01
  1 464 3.27571736E+00 1.03290399E+02 -3.04800000E-01
  1 465 3.18391737E+00 9.43214713E+01 -3.04800000E-01
  1 466 3.09211739E+00 5.53513524E+01 -3.04800000E-01
  1 467 3.04802790E+00 4.42245315E+01 -3.04800000E-01
  1 474 3.43019618E+00 4.01877132E+01 -3.04800000E-01
  1 475 3.33839620E+00 8.26379816E+01 -3.04800000E-01
  1 476 3.28882194E+00 9.74688938E+01 -3.04800000E-01
  1 477 3.28882194E+00 1.08786192E+02 -3.04800000E-01
  1 478 3.28882194E+00 1.10975400E+02 -3.04800000E-01
  1 479 3.28330220E+00 9.10099413E+01 -3.04800000E-01
  1 480 3.27730218E+00 8.17739104E+01 -3.04800000E-01
  1 481 3.26218387E+00 8.46517258E+01 -3.04800000E-01
  1 482 3.23218386E+00 5.66349495E+01 -3.04800000E-01
  1 483 3.20218385E+00 6.46414862E+00 -3.04800000E-01
  1 484 3.19738107E+00 7.73093242E+00 -3.04800000E-01
  1 491 3.41403207E+00 4.01877132E+01 -3.04800000E-01
  1 492 3.32283202E+00 8.28240842E+01 -3.04800000E-01
  1 493 3.27744554E+00 8.57545925E+01 -3.04800000E-01
  1 494 3.28584554E+00 9.17056574E+01 -3.04800000E-01
  1 495 3.29424554E+00 9.82835548E+01 -3.04800000E-01
  1 496 3.29491794E+00 9.57081964E+01 -3.04800000E-01
  1 497 3.29491794E+00 9.88392339E+01 -3.04800000E-01
  1 498 3.29491794E+00 8.89513524E+01 -3.04800000E-01
  1 499 3.29491794E+00 9.88392339E+01 -3.04800000E-01
  1 500 3.29491794E+00 1.03190718E+02 -3.04800000E-01
  1 501 3.28836670E+00 1.18624432E+02 -3.04800000E-01
  1 502 3.28056673E+00 1.18624432E+02 -3.04800000E-01
  1 503 3.31576992E+00 1.18624432E+02 -3.04800000E-01
  1 504 3.45136991E+00 1.18624432E+02 -3.04800000E-01
  1 505 3.58696990E+00 1.03787892E+02 -3.04800000E-01
  1 506 3.61953294E+00 1.03787892E+02 -3.04800000E-01
  1 507 3.61953294E+00 1.03787892E+02 -3.04800000E-01
  1 508 3.61953294E+00 1.03787892E+02 -3.04800000E-01
  1 509 3.61953294E+00 1.18624432E+02 -3.04800000E-01
  1 510 3.61953294E+00 1.18624432E+02 -3.04800000E-01
  1 511 3.71457081E+00 1.18624432E+02 -3.04800000E-01
  1 512 3.85437078E+00 1.11312330E+02 -3.04800000E-01
  1 513 4.06445722E+00 1.00724763E+02 -3.04800000E-01
  1 514 4.70705715E+00 1.18925196E+02 -3.04800000E-01
  1 515 5.34965709E+00 4.90355598E+01 -3.04800000E-01
  1 516 5.60684580E+00 2.95009167E+01 -3.04800000E-01
  1 517 5.24204584E+00 6.39076121E+01 -3.04800000E-01
  1 518 4.87724588E+00 1.37038625E+02 -3.04800000E-01
  1 519 4.68024546E+00 1.18624432E+02 -3.04800000E-01
  1 520 4.68024546E+00 1.03787892E+02 -3.04800000E-01
  1 521 4.68024546E+00 8.40026943E+01 -3.04800000E-01
  1 522 4.66865413E+00 9.63154371E+01 -3.04800000E-01
  1 523 4.65605419E+00 1.11882298E+02 -3.04800000E-01
  1 524 4.64824136E+00 1.03787892E+02 -3.04800000E-01
  1 525 4.64824136E+00 1.03787892E+02 -3.04800000E-01
  1 526 4.64824136E+00 9.88392339E+01 -3.04800000E-01
  1 527 4.68351745E+00 9.63154371E+01 -3.04800000E-01
  1 528 4.72551751E+00 1.04409843E+02 -3.04800000E-01
  1 529 4.75168363E+00 9.88392339E+01 -3.04800000E-01
  1 530 4.74088356E+00 1.03787892E+02 -3.04800000E-01
  1 531 4.73008348E+00 1.18624432E+02 -3.04800000E-01
  1 532 4.72748998E+00 1.11141910E+02 -3.04800000E-01
  1 533 4.72748998E+00 9.82834591E+01 -3.04800000E-01
  1 534 4.78869288E+00 9.67891934E+01 -3.04800000E-01
  1 535 5.06709289E+00 6.44353621E+01 -3.04800000E-01
  1 536 5.34549290E+00 2.55845075E+01 -3.04800000E-01
  1 543 3.74602560E+00 1.93273310E+00 -3.04800000E-01
  1 544 3.74962564E+00 4.17779959E+01 -3.04800000E-01
  1 545 3.75322568E+00 8.75525249E+01 -3.04800000E-01
  1 546 3.90723812E+00 7.29744091E+01 -3.04800000E-01
  1 547 4.23783809E+00 3.42724908E+01 -3.04800000E-01
  1 548 4.56843806E+00 1.61603715E+00 -3.04800000E-01
  1 549 4.59490136E+00 1.53506791E+00 -3.04800000E-01
  1 550 4.31650135E+00 4.01877132E+01 -3.04800000E-01
  1 551 4.03810134E+00 7.94373181E+01 -3.04800000E-01
  1 552 3.88775933E+00 1.04754940E+02 -3.04800000E-01
  1 553 3.88775933E+00 9.83710286E+01 -3.04800000E-01
  1 554 3.88775933E+00 8.34470151E+01 -3.04800000E-01
  1 555 3.79944366E+00 9.64372004E+01 -3.04800000E-01
  1 556 3.70344369E+00 1.12018415E+02 -3.04800000E-01
  1 557 3.59627370E+00 1.03787892E+02 -3.04800000E-01
  1 558 3.47087366E+00 1.18624432E+02 -3.04800000E-01
  1 559 3.34547362E+00 1.04400013E+02 -3.04800000E-01
  1 560 3.32539821E+00 8.35302685E+01 -3.04800000E-01
  1 561 3.32539821E+00 1.00222093E+02 -3.04800000E-01
  1 562 3.29265068E+00 1.12120842E+02 -3.04800000E-01
  1 563 3.18345071E+00 5.22247857E+01 -3.04800000E-01
  1 564 3.07425074E+00 1.44221537E+01 -3.04800000E-01
  1 565 3.04802773E+00 1.10561329E+01 -3.04800000E-01
  1 566 3.15722755E+00 5.28929380E+01 -3.04800000E-01
  1 567 3.26642752E+00 8.97042778E+01 -3.04800000E-01
  1 568 3.46311510E+00 7.13033424E+01 -3.04800000E-01
  1 569 3.76251509E+00 3.42724908E+01 -3.04800000E-01
  1 570 4.06191508E+00 1.61603715E+00 -3.04800000E-01
  1 582 3.57838431E+00 7.73093242E+00 -3.04800000E-01
  1 583 3.58078429E+00 3.45778591E+01 -3.04800000E-01
  1 584 3.58318427E+00 8.73800753E+01 -3.04800000E-01
  1 585 3.75559170E+00 7.43470992E+01 -3.04800000E-01
  1 586 4.12759169E+00 3.42724908E+01 -3.04800000E-01
  1 587 4.49959168E+00 1.61603715E+00 -3.04800000E-01
  1 604 3.79174650E+00 1.18624432E+02 -3.04800000E-01
  1 605 3.79174650E+00 1.18624432E+02 -3.04800000E-01
  1 606 3.79174650E+00 9.70457585E+01 -3.04800000E-01
  1 607 3.79174650E+00 8.89513524E+01 -3.04800000E-01
  1 608 3.79174650E+00 1.18624432E+02 -3.04800000E-01
  1 847 4.44642136E+00 1.28983044E+01 -3.04800000E-01
  1 849 3.23597017E+00 4.70460043E+00 -3.04800000E-01
  1 851 3.70666516E+00 4.70460043E+00 -3.04800000E-01
  1 852 3.74794562E+00 9.36604386E+00 -3.04800000E-01
  1 853 3.47303617E+00 1.28983044E+01 -3.04800000E-01
  1 855 3.45659209E+00 1.28983044E+01 -3.04800000E-01
  1 859 4.52066136E+00 4.80120420E+00 -3.04800000E-01
  1 861 3.74698561E+00 3.59929355E+00 -3.04800000E-01
  1 862 3.49751617E+00 4.80120420E+00 -3.04800000E-01
  1 863 3.48091211E+00 4.80120420E+00 -3.04800000E-01
  1 866 4.55778136E+00 2.26175692E+00 -3.04800000E-01
  1 868 3.74650561E+00 2.26175692E+00 -3.04800000E-01
  1 869 3.50975617E+00 2.26175692E+00 -3.04800000E-01
  1 870 3.49307211E+00 2.26175692E+00 -3.04800000E-01
  1 873 4.31359169E+00 1.41587374E+01 -3.04800000E-01
  1 875 3.91221509E+00 1.41587374E+01 -3.04800000E-01
  1 877 4.40313808E+00 1.41587374E+01 -3.04800000E-01
  1 880 3.68046208E+00 5.46960027E+00 -3.04800000E-01
  1 886 3.22817902E+00 5.46960027E+00 -3.04800000E-01
  1 887 4.40659169E+00 3.93014267E+00 -3.04800000E-01
  1 889 3.98706509E+00 3.93014267E+00 -3.04800000E-01
  1 891 4.48578807E+00 3.93014267E+00 -3.04800000E-01
  1 894 3.70599153E+00 3.08619136E+00 -3.04800000E-01
  1 900 3.23645703E+00 3.08619136E+00 -3.04800000E-01
  1 901 4.40570270E+00 5.11732699E+00 -3.04800000E-01
  1 902 3.99850599E+00 5.11732699E+00 -3.04800000E-01
  1 903 4.46685711E+00 5.11732699E+00 -3.04800000E-01
  1 905 3.48288562E+00 5.11732699E+00 -3.04800000E-01
  1 906 3.46750956E+00 5.11732699E+00 -3.04800000E-01
  1 908 3.70046194E+00 6.87221654E+00 -3.04800000E-01
  1 909 3.23339826E+00 6.87221654E+00 -3.04800000E-01
  1 910 4.45309168E+00 2.41837227E+00 -3.04800000E-01
  1 913 4.02449008E+00 2.41837227E+00 -3.04800000E-01
  1 916 4.52711306E+00 2.41837227E+00 -3.04800000E-01
  1 920 3.68529841E+00 1.18702409E+01 -3.04800000E-01
  1 928 3.23050480E+00 1.18702409E+01 -3.04800000E-01
  1 929 3.57966429E+00 1.29935507E+01 -3.04800000E-01
  1 930 3.51863819E+00 1.88184017E+01 -3.04800000E-01
  1 931 3.17458103E+00 1.88184017E+01 -3.04800000E-01
  1 933 3.62799750E+00 1.67594596E+01 -3.04800000E-01
  1 934 3.70595734E+00 5.52337477E+00 -3.04800000E-01
  1 935 3.21332484E+00 1.69664948E+01 -3.04800000E-01
  1 936 3.23730947E+00 5.52337477E+00 -3.04800000E-01
  1 947 3.57902430E+00 9.04702769E+00 -3.04800000E-01
  1 949 3.60915963E+00 2.47324548E+01 -3.04800000E-01
  1 950 3.20596469E+00 2.47324548E+01 -3.04800000E-01
  1 951 3.59672321E+00 2.15924953E+01 -3.04800000E-01
  1 952 3.66209947E+00 2.47714106E+01 -3.04800000E-01
  1 953 3.20193734E+00 3.30875010E+01 -3.04800000E-01
  1 954 3.22550424E+00 2.19236873E+01 -3.04800000E-01
  1 955 3.10626757E+00 1.26982684E+01 -3.04800000E-01
  1 958 4.31777465E+00 7.37812132E+00 -3.04800000E-01
  1 959 3.92776026E+00 7.37812132E+00 -3.04800000E-01
  1 960 4.38868152E+00 7.37812132E+00 -3.04800000E-01
  1 962 3.46046430E+00 7.37812132E+00 -3.04800000E-01
  1 963 3.44593949E+00 7.37812132E+00 -3.04800000E-01
  1 965 3.04307651E+00 4.13248972E+01 -3.04800000E-01
  1 967 3.47886448E+00 2.18784011E+01 -3.04800000E-01
  1 968 3.21718385E+00 1.57205707E+01 -3.04800000E-01
  1 969 3.15940307E+00 2.18784011E+01 -3.04800000E-01
  1 970 3.07714757E+00 8.99708480E+00 -3.04800000E-01
  1 972 4.15825827E+00 2.56512013E+01 -3.04800000E-01
  1 973 4.31129872E+00 2.23182358E+01 -3.04800000E-01
  1 974 3.80513589E+00 2.56512013E+01 -3.04800000E-01
  1 975 3.92677508E+00 2.23182358E+01 -3.04800000E-01
  1 976 4.23832130E+00 2.56512013E+01 -3.04800000E-01
  1 977 4.34007570E+00 2.23182358E+01 -3.04800000E-01
  1 980 3.41621400E+00 2.56512013E+01 -3.04800000E-01
  1 981 3.44275183E+00 2.23182358E+01 -3.04800000E-01
  1 982 3.40332349E+00 2.56512013E+01 -3.04800000E-01
  1 983 3.42831608E+00 2.23182358E+01 -3.04800000E-01
  1 987 3.51751052E+00 1.19375609E+01 -3.04800000E-01
  1 989 3.18338288E+00 1.19375609E+01 -3.04800000E-01
  1 991 3.04252955E+00 2.49200194E+01 -3.04800000E-01
  1 994 3.05973670E+00 1.19375609E+01 -3.04800000E-01
  1 1002 3.48606901E+00 4.74809638E+01 -3.04800000E-01
  1 1003 3.50933423E+00 2.74888662E+01 -3.04800000E-01
  1 1004 3.20968385E+00 9.67348908E+00 -3.04800000E-01
  1 1005 3.17407939E+00 4.74809638E+01 -3.04800000E-01
  1 1006 3.16125702E+00 2.74888662E+01 -3.04800000E-01
  1 1014 3.54393281E+00 3.14478350E+01 -3.04800000E-01
  1 1017 3.39911329E+00 6.76331504E+01 -3.04800000E-01
  1 1018 3.52045234E+00 1.93891942E+01 -3.04800000E-01
  1 1019 3.13898508E+00 6.76331504E+01 -3.04800000E-01
  1 1020 3.19524979E+00 1.93891942E+01 -3.04800000E-01
  1 1021 3.04365691E+00 6.28841346E+01 -3.04800000E-01
  1 1022 3.10084275E+00 1.93891942E+01 -3.04800000E-01
  1 1028 3.46446254E+00 7.92047162E+01 -3.04800000E-01
  1 1029 3.18963567E+00 7.92047162E+01 -3.04800000E-01
  1 1030 3.13865185E+00 7.92047162E+01 -3.04800000E-01
  1 1034 5.41228582E+00 3.15865213E+01 -3.04800000E-01
  1 1039 3.56389347E+00 4.50415247E+01 -3.04800000E-01
  1 1042 3.19624257E+00 4.50415247E+01 -3.04800000E-01
  1 1043 3.57507453E+00 6.66843299E+01 -3.04800000E-01
  1 1045 3.12885072E+00 3.11053830E+01 -3.04800000E-01
  1 1046 3.85469453E+00 6.07215491E+01 -3.04800000E-01
  1 1047 3.57878388E+00 6.07215491E+01 -3.04800000E-01
  1 1048 3.94172799E+00 6.08044428E+01 -3.04800000E-01
  1 1050 3.32762746E+00 6.11621199E+01 -3.04800000E-01
  1 1051 3.31795728E+00 6.07215491E+01 -3.04800000E-01
  1 1053 3.03708517E+00 3.79147992E+01 -3.04800000E-01
  1 1054 3.37078868E+00 9.89298193E+01 -3.04800000E-01
  1 1055 3.10454424E+00 8.83496183E+01 -3.04800000E-01
  1 1056 3.35196217E+00 8.99490971E+01 -3.04800000E-01
  1 1057 3.09293267E+00 7.85347625E+01 -3.04800000E-01
  1 1074 3.14129305E+00 7.38631101E+01 -3.04800000E-01
  1 1075 3.19245731E+00 7.42534287E+01 -3.04800000E-01
  1 1083 4.69740013E+00 8.86723739E+01 -3.04800000E-01
  1 1084 3.41797118E+00 6.63141070E+01 -3.04800000E-01
  1 1087 4.79556137E+00 9.03385818E+01 -3.04800000E-01
  1 1090 3.55337386E+00 3.20941409E+01 -3.04800000E-01
  1 1091 3.19100272E+00 3.20941409E+01 -3.04800000E-01
  1 1092 3.42956253E+00 6.38314393E+01 -3.04800000E-01
  1 1093 3.05936001E+00 1.01684197E+02 -3.04800000E-01
  1 1095 3.02297104E+00 8.80431794E+01 -3.04800000E-01
  1 1096 3.03042351E+00 7.85646340E+01 -3.04800000E-01
  1 1103 3.58085384E+00 7.25169880E+01 -3.04800000E-01
  1 1106 3.02847879E+00 7.20538124E+01 -3.04800000E-01
  1 1107 3.17795055E+00 4.08833704E+01 -3.04800000E-01
  1 1121 3.32248953E+00 8.81429113E+01 -3.04800000E-01
  1 1122 3.12261389E+00 9.41169647E+01 -3.04800000E-01
  1 1123 3.47439307E+00 3.53547513E+01 -3.04800000E-01
  1 1124 3.02383874E+00 9.74435395E+01 -3.04800000E-01
  1 1131 3.06551775E+00 4.56652038E+01 -3.04800000E-01
  1 1138 3.36601797E+00 6.86754889E+01 -3.04800000E-01
  1 1139 3.13196279E+00 9.08687425E+01 -3.04800000E-01
  1 1168 5.20629289E+00 3.78592176E+01 -3.04800000E-01
  1 1172 3.98048349E+00 7.76109604E+01 -3.04800000E-01
  1 1173 3.68799708E+00 7.76109604E+01 -3.04800000E-01
  1 1174 3.96459686E+00 7.38070163E+01 -3.04800000E-01
  1 1176 3.32641339E+00 7.90243037E+01 -3.04800000E-01
  1 1177 3.31556682E+00 7.76109604E+01 -3.04800000E-01
  1 1188 3.10542751E+00 1.00958579E+02 -3.04800000E-01
  1 1192 3.18671137E+00 9.96630527E+01 -3.04800000E-01
  1 1194 3.13635631E+00 6.70824328E+01 -3.04800000E-01
  1 1195 3.51083202E+00 4.13044366E+01 -3.04800000E-01
  1 1196 3.17368835E+00 7.81244092E+01 -3.04800000E-01
  1 1272 3.03432437E+00 1.03283833E+02 -3.04800000E-01
  1 1273 3.44809101E+00 5.19175578E+01 -3.04800000E-01
  1 1326 3.27452326E+00 9.10522698E+01 -3.04800000E-01
  1 1375 3.58948564E+00 6.70907832E+01 -3.04800000E-01
  1 1378 3.20725761E+00 6.70907832E+01 -3.04800000E-01
  1 1393 3.18883330E+00 9.88013902E+01 -3.04800000E-01
  1 1394 3.07984503E+00 9.67465925E+01 -3.04800000E-01
  1 1422 3.31470388E+00 8.09480807E+01 -3.04800000E-01
  1 1462 3.03780096E+00 1.38156045E+02 -3.04800000E-01
  1 1480 3.03232809E+00 1.25972915E+02 -3.04800000E-01
  1 1552 3.30150485E+00 1.19058245E+02 -3.04800000E-01
  1 1553 3.12831460E+00 1.34860297E+02 -3.04800000E-01
  1 1554 3.13378562E+00 1.32988510E+02 -3.04800000E-01
  1 1555 3.05444910E+00 1.32988510E+02 -3.04800000E-01
  1 1556 3.03823337E+00 1.13022857E+02 -3.04800000E-01
  1 1557 3.46368012E+00 8.76861482E+01 -3.04800000E-01
  1 1558 3.34968738E+00 1.04728105E+02 -3.04800000E-01
  1 1559 3.19967859E+00 1.04728105E+02 -3.04800000E-01
  1 1561 3.17370185E+00 1.04728105E+02 -3.04800000E-01
  1 1564 3.00912103E+00 1.06496522E+02 -3.04800000E-01
  1 1598 3.52135767E+00 1.25268594E+02 -3.04800000E-01
  1 1601 3.19155161E+00 8.27198103E+01 -3.04800000E-01
  1 1606 3.21537557E+00 9.60493318E+01 -3.04800000E-01
  1 1607 3.03375664E+00 1.16875835E+02 -3.04800000E-01
  1 1886 3.60342340E+00 7.92642554E+01 -3.04800000E-01
  1 1887 3.28747697E+00 9.01642196E+01 -3.04800000E-01
  1 1888 3.57326437E+00 8.21703386E+01 -3.04800000E-01
  1 1889 3.40499891E+00 8.21703386E+01 -3.04800000E-01
  1 1891 3.21684951E+00 8.21703386E+01 -3.04800000E-01
  1 2497 3.27407407E+00 1.19856592E+02 -3.04800000E-01
  1 2502 3.53293801E+00 1.14800752E+02 -3.04800000E-01
  1 2503 3.54109304E+00 1.38529368E+02 -3.04800000E-01
  1 2505 3.11524329E+00 1.25662753E+02 -3.04800000E-01
  1 2507 3.11294138E+00 1.31348814E+02 -3.04800000E-01
  1 2508 3.20122406E+00 1.11455382E+02 -3.04800000E-01
  1 2510 3.12260920E+00 1.19856592E+02 -3.04800000E-01
  1 2512 4.35710950E+00 1.05766426E+02 -3.04800000E-01
  1 2513 3.28230977E+00 8.52976308E+01 -3.04800000E-01
  1 2515 4.03149963E+00 8.97229172E+01 -3.04800000E-01
  1 2517 3.13181678E+00 1.41485781E+02 -3.04800000E-01
  1 2518 3.06708132E+00 1.12129562E+02 -3.04800000E-01
  1 2519 3.43243555E+00 1.02145878E+02 -3.04800000E-01
  1 2525 3.11386215E+00 1.14664337E+02 -3.04800000E-01
  1 2526 3.23956262E+00 1.31958997E+02 -3.04800000E-01
  1 2528 3.12076770E+00 1.34565005E+02 -3.04800000E-01
  1 2532 3.14010363E+00 1.41366699E+02 -3.04800000E-01
  1 2533 3.03353060E+00 1.19571425E+02 -3.04800000E-01
  1 2534 3.55536481E+00 1.25232426E+02 -3.04800000E-01
  1 2535 3.28586117E+00 1.26552665E+02 -3.04800000E-01
  1 2536 3.38940834E+00 9.84923515E+01 -3.04800000E-01
  1 2537 3.09397011E+00 9.08074884E+01 -3.04800000E-01
  1 2538 3.18840606E+00 1.12417384E+02 -3.04800000E-01
  1 2539 3.27407407E+00 1.25028529E+02 -3.04800000E-01
  1 2540 3.15961657E+00 1.07324210E+02 -3.04800000E-01
  1 2541 3.12260920E+00 1.52929778E+02 -3.04800000E-01
  1 2542 3.03216998E+00 1.15780560E+02 -3.04800000E-01
  1 2543 3.02509454E+00 1.00855940E+02 -3.04800000E-01
  1 2544 3.26900989E+00 1.41812078E+02 -3.04800000E-01
  1 2545 2.95893760E+00 1.15061920E+02 -3.04800000E-01
  1 2558 3.27942666E+00 1.25132310E+02 -3.04800000E-01
  1 2562 3.11443448E+00 1.06326526E+02 -3.04800000E-01
  1 2564 3.05820813E+00 1.30612697E+02 -3.04800000E-01
  1 2565 3.18788373E+00 1.15554567E+02 -3.04800000E-01
  1 2566 3.24414937E+00 1.36441878E+02 -3.04800000E-01
  1 2567 3.27269289E+00 1.25840322E+02 -3.04800000E-01
  1 2572 3.30169678E+00 1.29132810E+02 -3.04800000E-01
  1 2573 3.59675209E+00 1.25873038E+02 -3.04800000E-01
  1 2574 3.20051081E+00 9.30080579E+01 -3.04800000E-01
  1 2575 3.13732795E+00 1.10008395E+02 -3.04800000E-01
  1 2576 3.71228586E+00 1.10492018E+02 -3.04800000E-01
  1 2577 3.09631199E+00 1.07622049E+02 -3.04800000E-01
  1 2578 3.46443315E+00 1.09767618E+02 -3.04800000E-01
  1 2579 3.08428830E+00 1.10008395E+02 -3.04800000E-01
  1 2580 3.17858143E+00 1.10492018E+02 -3.04800000E-01
  1 2775 3.47287701E+00 1.12778243E+02 -3.04800000E-01
  1 2776 3.12721301E+00 1.13247651E+02 -3.04800000E-01
  1 2777 3.27269289E+00 1.19333032E+02 -3.04800000E-01
  1 2778 3.27269289E+00 1.20134105E+02 -3.04800000E-01
  1 2779 3.51386319E+00 1.31196157E+02 -3.04800000E-01
  1 2788 3.95656378E+00 1.12778243E+02 -3.04800000E-01
  1 2789 3.97067658E+00 1.12778243E+02 -3.04800000E-01
  1 2790 3.22067003E+00 1.19856592E+02 -3.04800000E-01
  1 2791 3.98933485E+00 1.18841992E+02 -3.04800000E-01
  1 2792 3.22067003E+00 1.31452014E+02 -3.04800000E-01
  1 2793 3.97473441E+00 1.16951312E+02 -3.04800000E-01
  1 2797 3.14010363E+00 1.19856592E+02 -3.04800000E-01
  1 2798 3.11294138E+00 1.51718917E+02 -3.04800000E-01
  1 2799 3.17435781E+00 1.15449194E+02 -3.04800000E-01
  1 2802 3.14654895E+00 1.23225743E+02 -3.04800000E-01
  1 2803 3.17003142E+00 1.18728407E+02 -3.04800000E-01
  1 2804 3.17003142E+00 1.37425761E+02 -3.04800000E-01
  1 2806 3.17958066E+00 1.06466036E+02 -3.04800000E-01
  1 2807 3.11386215E+00 1.45858280E+02 -3.04800000E-01
  1 2808 3.17512394E+00 1.37397155E+02 -3.04800000E-01
  1 2813 3.18820200E+00 1.12778243E+02 -3.04800000E-01
  1 2814 3.22067003E+00 1.24577312E+02 -3.04800000E-01
  1 2815 3.12260920E+00 1.22328976E+02 -3.04800000E-01
  1 2816 3.18820200E+00 1.31196157E+02 -3.04800000E-01
  1 2818 4.15487105E+00 8.74522607E+01 -3.04800000E-01
  1 2819 3.18964771E+00 8.85832358E+01 -3.04800000E-01
  1 2820 3.17502552E+00 1.07892504E+02 -3.04800000E-01
  1 2822 3.60627095E+00 1.14264151E+02 -3.04800000E-01
  1 2824 3.20550746E+00 1.23198972E+02 -3.04800000E-01
  1 2825 3.18543348E+00 1.12554712E+02 -3.04800000E-01
  1 2826 2.96202276E+00 9.30735715E+01 -3.04800000E-01
  1 2827 3.46770499E+00 9.94457950E+01 -3.04800000E-01
  1 2837 3.17176199E+00 1.14890516E+02 -3.04800000E-01
  1 2838 3.11524329E+00 1.40561216E+02 -3.04800000E-01
  1 2839 3.17414169E+00 1.35421336E+02 -3.04800000E-01
  1 2840 3.49387611E+00 1.16951312E+02 -3.04800000E-01
  1 2841 3.13181678E+00 1.32424466E+02 -3.04800000E-01
  1 2842 3.27600612E+00 1.31532871E+02 -3.04800000E-01
  1 2843 3.18474094E+00 1.24932690E+02 -3.04800000E-01
  1 2847 3.22108242E+00 1.23232429E+02 -3.04800000E-01
  1 2848 3.12578186E+00 1.21631135E+02 -3.04800000E-01
  1 2849 3.22108242E+00 1.22780660E+02 -3.04800000E-01
  1 2850 4.00155792E+00 1.12778243E+02 -3.04800000E-01
  1 2851 3.48647764E+00 9.41547135E+01 -3.04800000E-01
  1 2852 2.95420234E+00 1.24441995E+02 -3.04800000E-01
  1 2853 3.20292838E+00 1.14731239E+02 -3.04800000E-01
  1 2854 3.47287701E+00 1.12778243E+02 -3.04800000E-01
  1 2855 3.18820200E+00 1.26112038E+02 -3.04800000E-01
  1 2856 3.03033517E+00 1.55086707E+02 -3.04800000E-01
  1 2857 3.01684542E+00 1.00351189E+02 -3.04800000E-01
  1 2867 3.41663418E+00 1.23215395E+02 -3.04800000E-01
  1 2868 3.26023587E+00 1.47206712E+02 -3.04800000E-01
  1 2869 3.46777451E+00 1.35512311E+02 -3.04800000E-01
  1 2870 3.47028113E+00 1.15449194E+02 -3.04800000E-01
  1 2875 3.52479332E+00 1.12778243E+02 -3.04800000E-01
  1 2876 3.04432625E+00 1.10830317E+02 -3.04800000E-01
  1 2877 3.04215796E+00 1.27391890E+02 -3.04800000E-01
  1 2878 3.64783060E+00 1.05968331E+02 -3.04800000E-01
  1 2879 3.52236468E+00 1.05257037E+02 -3.04800000E-01
  1 2880 3.03172280E+00 1.33528722E+02 -3.04800000E-01
  1 2881 3.20234538E+00 1.05968331E+02 -3.04800000E-01
  1 2966 3.53397398E+00 9.27662264E+01 -3.04800000E-01
  1 2967 3.12721301E+00 1.44796283E+02 -3.04800000E-01
  1 2968 3.19685476E+00 1.18903214E+02 -3.04800000E-01
  1 2969 3.19685476E+00 1.12778243E+02 -3.04800000E-01
  1 2970 3.27269289E+00 1.40561216E+02 -3.04800000E-01
  1 2971 3.47028113E+00 1.35421336E+02 -3.04800000E-01
  1 2972 3.47028113E+00 1.27151841E+02 -3.04800000E-01
  1 2977 4.08721922E+00 9.27662264E+01 -3.04800000E-01
  1 2978 4.10800293E+00 1.10819980E+02 -3.04800000E-01
  1 2979 3.22067003E+00 1.19207070E+02 -3.04800000E-01
  1 2980 3.37250525E+00 1.31196157E+02 -3.04800000E-01
  1 2981 3.37250525E+00 1.12778243E+02 -3.04800000E-01
  1 2982 3.37250525E+00 1.24417057E+02 -3.04800000E-01
  1 2984 3.22445559E+00 1.12778243E+02 -3.04800000E-01
  1 2985 3.14010363E+00 1.32000574E+02 -3.04800000E-01
  1 2986 3.22108242E+00 1.31196157E+02 -3.04800000E-01
  1 2987 3.17286738E+00 1.35435289E+02 -3.04800000E-01
  1 2988 3.19252514E+00 1.10915360E+02 -3.04800000E-01
  1 2991 3.23319625E+00 1.26112038E+02 -3.04800000E-01
  1 2992 3.07929375E+00 1.48752724E+02 -3.04800000E-01
  1 2999 3.20836026E+00 9.27662264E+01 -3.04800000E-01
  1 3000 3.37250525E+00 1.16951312E+02 -3.04800000E-01
  1 3001 3.17851440E+00 1.30959706E+02 -3.04800000E-01
  1 3002 4.15487399E+00 1.02943188E+02 -3.04800000E-01
  1 3003 3.38490075E+00 1.44846973E+02 -3.04800000E-01
  1 3004 3.14142989E+00 1.24681817E+02 -3.04800000E-01
  1 3005 3.24237653E+00 1.14658238E+02 -3.04800000E-01
  1 3007 3.14991275E+00 1.36881854E+02 -3.04800000E-01
  1 3009 3.22815440E+00 1.10915360E+02 -3.04800000E-01
  1 3010 3.21587185E+00 9.27662264E+01 -3.04800000E-01
  1 3011 3.47575522E+00 1.02035120E+02 -3.04800000E-01
  1 3012 3.09491790E+00 1.03094706E+02 -3.04800000E-01
  1 3019 3.18955602E+00 1.10915360E+02 -3.04800000E-01
  1 3020 3.59335631E+00 1.10819980E+02 -3.04800000E-01
  1 3021 3.20440147E+00 9.55793936E+01 -3.04800000E-01
  1 3026 3.24596917E+00 1.10915360E+02 -3.04800000E-01
  1 3027 3.18775398E+00 1.16951312E+02 -3.04800000E-01
  1 3028 3.23511034E+00 1.10915360E+02 -3.04800000E-01
  1 3029 4.14785992E+00 9.27662264E+01 -3.04800000E-01
  1 3030 3.53013450E+00 1.05920263E+02 -3.04800000E-01
  1 3031 3.00140982E+00 1.37281192E+02 -3.04800000E-01
  1 3032 3.07211746E+00 1.23322703E+02 -3.04800000E-01
  1 3033 3.53397398E+00 9.27786411E+01 -3.04800000E-01
  1 3034 3.04556513E+00 1.22301339E+02 -3.04800000E-01
  1 3035 3.03558207E+00 1.35657469E+02 -3.04800000E-01
  1 3036 3.03929321E+00 1.15458044E+02 -3.04800000E-01
  1 3037 2.98906330E+00 1.10833363E+02 -3.04800000E-01
  1 3044 3.47630710E+00 1.10915360E+02 -3.04800000E-01
  1 3045 3.53100479E+00 1.10915360E+02 -3.04800000E-01
  1 3047 3.20484044E+00 1.16778639E+02 -3.04800000E-01
  1 3048 3.09976634E+00 1.16778639E+02 -3.04800000E-01
  1 3107 3.54108837E+00 9.06493319E+01 -3.04800000E-01
  1 3108 3.04557715E+00 1.18100496E+02 -3.04800000E-01
  1 3109 3.21825737E+00 1.10915360E+02 -3.04800000E-01
  1 3110 3.21825737E+00 1.10819980E+02 -3.04800000E-01
  1 3115 3.53142514E+00 1.67085398E+02 -3.04800000E-01
  1 3116 4.10243327E+00 1.04483907E+02 -3.04800000E-01
  1 3117 3.04802775E+00 1.36641925E+02 -3.04800000E-01
  1 3118 3.41916790E+00 1.10819980E+02 -3.04800000E-01
  1 3121 3.25615444E+00 9.27662264E+01 -3.04800000E-01
  1 3122 3.07911369E+00 1.15214255E+02 -3.04800000E-01
  1 3127 3.21070757E+00 9.06902296E+01 -3.04800000E-01
  1 3128 3.04108440E+00 1.02425035E+02 -3.04800000E-01
  1 3129 3.53994178E+00 1.04092226E+02 -3.04800000E-01
  1 3130 3.04802775E+00 1.31872690E+02 -3.04800000E-01
  1 3135 3.08677853E+00 1.37901607E+02 -3.04800000E-01
  1 3136 3.22074957E+00 1.04483907E+02 -3.04800000E-01
  1 3137 3.03876993E+00 1.36767082E+02 -3.04800000E-01
  1 3142 3.07847494E+00 1.19566395E+02 -3.04800000E-01
  1 3143 3.04721088E+00 1.22221270E+02 -3.04800000E-01
  1 3144 3.08655492E+00 1.29088659E+02 -3.04800000E-01
  1 3147 3.09061104E+00 1.23595988E+02 -3.04800000E-01
  1 3148 3.09061104E+00 1.12937678E+02 -3.04800000E-01
  1 3149 4.16432219E+00 1.04483907E+02 -3.04800000E-01
  1 3150 3.04557715E+00 1.29448987E+02 -3.04800000E-01
  1 3151 3.23144943E+00 1.16108690E+02 -3.04800000E-01
  1 3152 3.20856599E+00 1.14601452E+02 -3.04800000E-01
  1 3155 3.13873014E+00 1.32012007E+02 -3.04800000E-01
  1 3156 3.15193096E+00 1.15214255E+02 -3.04800000E-01
  1 3216 3.54118752E+00 9.06348944E+01 -3.04800000E-01
  1 3217 3.24531453E+00 1.13209219E+02 -3.04800000E-01
  1 3218 3.08464938E+00 1.18815330E+02 -3.04800000E-01
  1 3219 3.04135669E+00 1.38888197E+02 -3.04800000E-01
  1 3220 3.04448797E+00 1.03503946E+02 -3.04800000E-01
  1 3221 3.04721087E+00 1.14717477E+02 -3.04800000E-01
  1 3222 3.04448799E+00 1.14831500E+02 -3.04800000E-01
  1 3224 3.26159724E+00 9.06902296E+01 -3.04800000E-01
  1 3225 3.04226547E+00 1.42249585E+02 -3.04800000E-01
  1 3227 3.11312031E+00 1.14246109E+02 -3.04800000E-01
  1 3228 3.04499832E+00 1.29323551E+02 -3.04800000E-01
  1 3231 3.11713839E+00 1.31479524E+02 -3.04800000E-01
  1 3273 3.24530749E+00 1.13238674E+02 -3.04800000E-01
  1 3274 3.46992308E+00 1.31479524E+02 -3.04800000E-01
  1 3275 3.49506941E+00 1.27436080E+02 -3.04800000E-01
  1 3276 3.13395268E+00 1.10630749E+02 -3.04800000E-01
  1 3412 3.36449144E+00 8.01107873E+01 -3.04800000E-01
  1 3413 3.16302650E+00 8.60062931E+01 -3.04800000E-01
  1 3415 2.99836809E+00 1.00014065E+02 -3.04800000E-01
  1 3416 2.99502425E+00 1.07089793E+02 -3.04800000E-01
  1 3417 3.00286246E+00 1.11143579E+02 -3.04800000E-01
  1 3418 3.02728665E+00 1.25149826E+02 -3.04800000E-01
  1 3425 3.03989607E+00 1.03595779E+02 -3.04800000E-01
  1 3440 2.92380847E+00 1.17562697E+02 -3.04800000E-01
  1 3442 3.03855881E+00 1.15770601E+02 -3.04800000E-01
  1 3443 2.99623886E+00 1.21545923E+02 -3.04800000E-01
  1 3477 3.04141440E+00 1.29647344E+02 -3.04800000E-01
  1 3478 3.15397256E+00 1.33822107E+02 -3.04800000E-01
  1 3479 3.22200237E+00 1.34844000E+02 -3.04800000E-01
  1 3492 3.15918925E+00 1.11693799E+02 -3.04800000E-01
  1 3493 3.03205346E+00 1.19087298E+02 -3.04800000E-01
  1 3494 3.04409413E+00 1.10925027E+02 -3.04800000E-01
  1 3495 3.29049912E+00 1.14364458E+02 -3.04800000E-01
  1 3496 3.03241326E+00 1.14026429E+02 -3.04800000E-01
  1 3497 3.04619755E+00 1.18691834E+02 -3.04800000E-01
  1 3498 3.21994949E+00 1.27540619E+02 -3.04800000E-01
  1 3499 3.08470424E+00 1.12253719E+02 -3.04800000E-01
  1 3500 3.00276738E+00 1.12280209E+02 -3.04800000E-01
  1 3501 3.03688252E+00 1.13120480E+02 -3.04800000E-01
  1 3502 3.10590256E+00 1.08248358E+02 -3.04800000E-01
  1 3503 3.06810354E+00 1.28189291E+02 -3.04800000E-01
  1 3504 3.08696823E+00 1.12269199E+02 -3.04800000E-01
  1 3505 2.98187326E+00 1.74677875E+02 -3.04800000E-01
  1 3506 3.02069967E+00 1.39606630E+02 -3.04800000E-01
  1 3507 3.13647727E+00 1.26234530E+02 -3.04800000E-01
  1 3508 3.17277311E+00 1.20989792E+02 -3.04800000E-01
  1 3509 3.15918925E+00 1.07990824E+02 -3.04800000E-01
  1 3510 3.04493967E+00 1.05466283E+02 -3.04800000E-01
  1 3511 3.03158613E+00 1.28509463E+02 -3.04800000E-01
  1 3512 3.03259237E+00 9.85552572E+01 -3.04800000E-01
  1 3517 3.08696823E+00 1.14364458E+02 -3.04800000E-01
  1 3518 3.00454231E+00 1.25583364E+02 -3.04800000E-01
  1 3519 3.03731960E+00 1.24289262E+02 -3.04800000E-01
  1 3520 3.07563813E+00 1.35324412E+02 -3.04800000E-01
  1 3521 3.28574480E+00 1.06643519E+02 -3.04800000E-01
  1 3522 3.03717428E+00 1.00548676E+02 -3.04800000E-01
  1 3523 3.29751745E+00 1.12269199E+02 -3.04800000E-01
  1 3524 3.04270294E+00 1.37713516E+02 -3.04800000E-01
  1 3525 3.04671653E+00 1.22918588E+02 -3.04800000E-01
  1 3526 3.13292705E+00 1.12603050E+02 -3.04800000E-01
  1 3527 3.02495378E+00 1.04280036E+02 -3.04800000E-01
  1 3528 3.04234586E+00 1.07904851E+02 -3.04800000E-01
  1 3529 3.10822480E+00 1.19680883E+02 -3.04800000E-01
  1 3531 3.09330738E+00 1.12269199E+02 -3.04800000E-01
  1 3532 3.00542982E+00 1.27727979E+02 -3.04800000E-01
  1 3533 3.03753814E+00 1.16266166E+02 -3.04800000E-01
  1 3534 3.05289816E+00 1.22300992E+02 -3.04800000E-01
  1 3537 3.02256579E+00 1.43851007E+02 -3.04800000E-01
  1 3559 3.04010366E+00 1.44098569E+02 -3.04800000E-01
  1 3560 3.03829226E+00 1.42680280E+02 -3.04800000E-01
  1 3561 3.05446150E+00 1.08650868E+02 -3.04800000E-01
  1 3623 3.02142378E+00 1.09323505E+02 -3.04800000E-01