# File generated by Flopy version 3.9.0.dev0 on 09/06/2024 at 07:54:40.
BEGIN options
  XT3D
  SAVE_SPECIFIC_DISCHARGE
  SAVE_SATURATION
END options

BEGIN griddata
  icelltype  LAYERED
    CONSTANT  1
    CONSTANT  0
    CONSTANT  0
    CONSTANT  0
    CONSTANT  0
    CONSTANT  0
  k  LAYERED
    INTERNAL  FACTOR  1.0
          50.29245758      50.29245758      50.29245758      50.29245758      50.29245758      50.29245758      50.29245758      50.29245758      50.29245758      50.29245758      50.29245758      50.29245758      50.29245758      50.29245758      50.29245758      50.29245758      50.29245758      50.29245758      50.29245758      50.29245758
          50.29245758      50.29245758      50.29245758      50.29245758      50.29245758      50.29245758      50.29245758      50.29245758      50.29245758      50.29245758      50.29245758      50.29245758      50.29245758      50.29245758      50.29245758      50.29245758      50.29245758      50.29245758      50.29245758      50.29245758
          50.29245758      50.29245758      50.29245758      50.29245758      50.29245758      60.96055603      60.96055603      60.96055603      60.96055603      60.96055603      60.96055603      60.96055603      60.96055603      60.96055603      60.96055603      60.96055603      60.96055603      60.96055603      60.96055603      60.96055603
          60.96055603      60.96055603      60.96055603      60.96055603      60.96055603      60.96055603      60.96055603      60.96055603      60.96055603      60.96055603      60.96055603      60.96055603      83.82076263      83.82076263      83.82076263      83.82076263      83.82076263      83.82076263      83.82076263      83.82076263
          83.82076263      83.82076263      83.82076263      83.82076263      83.82076263      83.82076263      83.82076263      83.82076263      83.82076263      60.96055603      60.96055603      60.96055603      60.96055603      60.96055603      60.96055603      60.96055603      60.96055603      60.96055603      60.96055603      60.96055603
          60.96055603      60.96055603      60.96055603      60.96055603      60.96055603      60.96055603      60.96055603      60.96055603      60.96055603      60.96055603      60.96055603      60.96055603      60.96055603      60.96055603      60.96055603      60.96055603      60.96055603      60.96055603      60.96055603      60.96055603
          60.96055603      60.96055603      60.96055603      50.29245758      50.29245758      50.29245758      50.29245758      50.29245758      50.29245758      50.29245758      50.29245758      50.29245758      50.29245758      50.29245758      50.29245758      50.29245758      50.29245758      50.29245758      50.29245758      50.29245758
          50.29245758      50.29245758      50.29245758      50.29245758      50.29245758      50.29245758      50.29245758      50.29245758      50.29245758      50.29245758      50.29245758      50.29245758      50.29245758      50.29245758      50.29245758      50.29245758      50.29245758      50.29245758      50.29245758      50.29245758
          50.29245758      50.29245758      50.29245758      50.29245758      50.29245758      50.29245758      50.29245758      50.29245758      50.29245758      50.29245758      50.29245758      50.29245758      50.29245758      50.29245758      50.29245758      50.29245758      50.29245758      50.29245758      50.29245758      50.29245758
          50.29245758      50.29245758      50.29245758      50.29245758      50.29245758      50.29245758      50.29245758      50.29245758      50.29245758      50.29245758      50.29245758      50.29245758      50.29245758      50.29245758      50.29245758      50.29245758      50.29245758      50.29245758      50.29245758      50.29245758
          50.29245758      50.29245758      50.29245758      50.29245758      50.29245758      50.29245758      50.29245758      50.29245758      50.29245758      50.29245758      50.29245758      50.29245758      50.29245758      50.29245758      50.29245758      50.29245758      50.29245758      50.29245758      50.29245758      50.29245758
          50.29245758      50.29245758      50.29245758      50.29245758      50.29245758      50.29245758      50.29245758      50.29245758      50.29245758      50.29245758      50.29245758      50.29245758      50.29245758      50.29245758      50.29245758      50.29245758      50.29245758      50.29245758      50.29245758      50.29245758
          50.29245758      50.29245758      50.29245758      50.29245758      50.29245758      50.29245758      50.29245758      50.29245758      50.29245758      50.29245758      50.29245758      50.29245758      50.29245758      50.29245758      50.29245758      50.29245758      50.29245758      50.29245758      50.29245758      50.29245758
          50.29245758      50.29245758      50.29245758      50.29245758      50.29245758      50.29245758      45.72041702      45.72041702      45.72041702      45.72041702      45.72041702      45.72041702      45.72041702      45.72041702      45.72041702      45.72041702      45.72041702      45.72041702      45.72041702      45.72041702
          45.72041702      45.72041702      45.72041702      45.72041702      45.72041702      45.72041702      45.72041702      45.72041702      45.72041702      45.72041702      45.72041702      45.72041702      45.72041702      45.72041702      45.72041702      45.72041702      45.72041702      45.72041702      45.72041702      45.72041702
          45.72041702      45.72041702      45.72041702      45.72041702      45.72041702      45.72041702      45.72041702      45.72041702      45.72041702      45.72041702      50.29245758      50.29245758      50.29245758      50.29245758      50.29245758      50.29245758      50.29245758      50.29245758      50.29245758      50.29245758
          50.29245758      50.29245758      50.29245758      50.29245758      50.29245758      50.29245758      50.29245758      50.29245758      50.29245758      50.29245758      50.29245758      50.29245758      50.29245758      50.29245758      50.29245758      50.29245758      50.29245758      50.29245758      50.29245758      50.29245758
          50.29245758      50.29245758      50.29245758      50.29245758      50.29245758      50.29245758      50.29245758      50.29245758      50.29245758      50.29245758      50.29245758      50.29245758      50.29245758      50.29245758      50.29245758      50.29245758      50.29245758      50.29245758      50.29245758      50.29245758
          50.29245758      50.29245758      50.29245758      50.29245758      50.29245758      50.29245758      50.29245758      50.29245758      50.29245758      50.29245758      50.29245758      50.29245758      50.29245758      50.29245758      50.29245758      50.29245758      50.29245758      50.29245758      50.29245758      50.29245758
          50.29245758      50.29245758      50.29245758      50.29245758      50.29245758      50.29245758      50.29245758      50.29245758      50.29245758      50.29245758      50.29245758      50.29245758      50.29245758      50.29245758      50.29245758      50.29245758      50.29245758      50.29245758      50.29245758      50.29245758
          50.29245758      50.29245758      50.29245758      50.29245758      50.29245758      50.29245758      50.29245758      50.29245758      50.29245758      50.29245758      50.29245758      50.29245758      50.29245758      50.29245758      60.96055603      60.96055603      60.96055603      60.96055603      60.96055603      60.96055603
          60.96055603      60.96055603      60.96055603      60.96055603      60.96055603      83.82076263      83.82076263      83.82076263      83.82076263      83.82076263      83.82076263      83.82076263      83.82076263      83.82076263      83.82076263      83.82076263     121.92111206     121.92111206     121.92111206     121.92111206
         121.92111206     121.92111206     121.92111206     121.92111206     121.92111206     121.92111206     121.92111206     121.92111206     121.92111206     121.92111206     121.92111206     121.92111206     121.92111206     121.92111206     121.92111206     121.92111206     121.92111206     121.92111206     121.92111206     121.92111206
         121.92111206     121.92111206     121.92111206     121.92111206     121.92111206     121.92111206     121.92111206     121.92111206     121.92111206     121.92111206     121.92111206     121.92111206     121.92111206     121.92111206     121.92111206     121.92111206     121.92111206     121.92111206     121.92111206     121.92111206
         121.92111206     121.92111206     121.92111206     121.92111206     121.92111206     121.92111206     121.92111206     121.92111206     121.92111206     121.92111206     121.92111206     121.92111206     121.92111206     121.92111206     121.92111206      83.82076263      83.82076263      83.82076263      83.82076263      83.82076263
          60.96055603      60.96055603      60.96055603      60.96055603      60.96055603      60.96055603      60.96055603      60.96055603      60.96055603      60.96055603      60.96055603      60.96055603      60.96055603      60.96055603      60.96055603      60.96055603      60.96055603      60.96055603      60.96055603      60.96055603
          60.96055603      60.96055603      60.96055603      60.96055603      60.96055603      60.96055603      60.96055603      60.96055603      60.96055603      60.96055603      60.96055603      60.96055603      60.96055603      60.96055603      60.96055603      60.96055603      60.96055603      60.96055603      60.96055603      60.96055603
          60.96055603      60.96055603      60.96055603      60.96055603      60.96055603      60.96055603      60.96055603      60.96055603      60.96055603      60.96055603      60.96055603      60.96055603      60.96055603      60.96055603      60.96055603      60.96055603      60.96055603      60.96055603      60.96055603      60.96055603
          60.96055603      60.96055603      60.96055603      60.96055603      60.96055603      60.96055603      60.96055603      60.96055603      60.96055603      60.96055603      60.96055603      60.96055603      60.96055603      60.96055603      60.96055603      60.96055603      60.96055603      60.96055603      60.96055603      60.96055603
          60.96055603      60.96055603      60.96055603      60.96055603      60.96055603      60.96055603      60.96055603      60.96055603      60.96055603      60.96055603      60.96055603      60.96055603      60.96055603      60.96055603      60.96055603      60.96055603      60.96055603      60.96055603      60.96055603      60.96055603
          60.96055603      60.96055603      60.96055603      60.96055603      60.96055603      60.96055603      60.96055603      60.96055603      60.96055603      60.96055603      60.96055603      60.96055603      60.96055603      60.96055603      60.96055603      60.96055603      60.96055603      60.96055603      60.96055603      60.96055603
          60.96055603      60.96055603      60.96055603      60.96055603      60.96055603      83.82076263      83.82076263      83.82076263      83.82076263      83.82076263      83.82076263      83.82076263      83.82076263      83.82076263      83.82076263      83.82076263      83.82076263      83.82076263      83.82076263      83.82076263
          83.82076263      83.82076263      83.82076263      83.82076263      83.82076263      83.82076263      83.82076263      83.82076263      83.82076263      83.82076263      83.82076263      83.82076263      83.82076263      83.82076263      83.82076263      83.82076263      83.82076263      83.82076263      83.82076263      83.82076263
          83.82076263      60.96055603      60.96055603      60.96055603      60.96055603      60.96055603      60.96055603      60.96055603      60.96055603      60.96055603      60.96055603      60.96055603      60.96055603      60.96055603      60.96055603      50.29245758      50.29245758      50.29245758      50.29245758      50.29245758
          50.29245758      50.29245758      50.29245758      50.29245758      50.29245758      50.29245758      50.29245758      50.29245758      50.29245758      50.29245758      50.29245758      50.29245758      50.29245758      60.96055603      60.96055603      60.96055603      60.96055603      50.29245758      50.29245758      50.29245758
          50.29245758      50.29245758      50.29245758      50.29245758      50.29245758      50.29245758      50.29245758      50.29245758      50.29245758      50.29245758      50.29245758      50.29245758      50.29245758      50.29245758      50.29245758      50.29245758      50.29245758      50.29245758      50.29245758      50.29245758
          50.29245758      50.29245758      50.29245758      50.29245758      50.29245758      50.29245758      50.29245758      50.29245758      50.29245758      50.29245758      50.29245758      50.29245758      50.29245758      45.72041702      45.72041702      45.72041702      45.72041702      50.29245758      50.29245758      50.29245758
          50.29245758      50.29245758      50.29245758      50.29245758      50.29245758      50.29245758      50.29245758      50.29245758      50.29245758      50.29245758      50.29245758      50.29245758      50.29245758      50.29245758      50.29245758      50.29245758      50.29245758      50.29245758      50.29245758      50.29245758
          50.29245758      50.29245758      50.29245758      50.29245758      50.29245758      50.29245758      50.29245758      50.29245758      50.29245758      50.29245758      50.29245758      50.29245758      50.29245758      50.29245758      50.29245758      50.29245758      50.29245758      50.29245758      50.29245758      50.29245758
          50.29245758      50.29245758      50.29245758      50.29245758      50.29245758      50.29245758      50.29245758      50.29245758      50.29245758      50.29245758      50.29245758      50.29245758      50.29245758      50.29245758      50.29245758      50.29245758      50.29245758      50.29245758      50.29245758      50.29245758
          50.29245758      50.29245758      50.29245758      50.29245758      50.29245758      50.29245758      50.29245758      50.29245758      50.29245758      50.29245758      50.29245758      50.29245758      50.29245758      50.29245758      50.29245758      50.29245758      50.29245758      50.29245758      50.29245758      50.29245758
          50.29245758      50.29245758      50.29245758      50.29245758      50.29245758      50.29245758      50.29245758      50.29245758      50.29245758      50.29245758      50.29245758      50.29245758      50.29245758      50.29245758      50.29245758      50.29245758      50.29245758      50.29245758      50.29245758      50.29245758
          50.29245758      50.29245758      60.96055603      60.96055603      60.96055603      60.96055603      60.96055603      60.96055603      60.96055603      60.96055603      60.96055603      60.96055603     121.92111206     121.92111206     121.92111206     121.92111206      60.96055603      60.96055603      60.96055603      60.96055603
          60.96055603     121.92111206     121.92111206      60.96055603      60.96055603      60.96055603      60.96055603      60.96055603     121.92111206     121.92111206      60.96055603      60.96055603      60.96055603      60.96055603      60.96055603      60.96055603      60.96055603      60.96055603      60.96055603      60.96055603
         121.92111206     121.92111206     121.92111206      83.82076263      60.96055603      60.96055603      60.96055603      60.96055603      60.96055603      60.96055603      60.96055603      60.96055603      60.96055603      60.96055603     121.92111206     121.92111206     121.92111206      83.82076263      60.96055603      60.96055603
          60.96055603      60.96055603      60.96055603      60.96055603     121.92111206     121.92111206      60.96055603      60.96055603      60.96055603      60.96055603      60.96055603      60.96055603      60.96055603      60.96055603      60.96055603      60.96055603      60.96055603      50.29245758      60.96055603      60.96055603
         121.92111206     121.92111206     121.92111206     121.92111206     121.92111206     121.92111206      60.96055603      60.96055603      60.96055603      60.96055603     121.92111206     121.92111206      60.96055603      60.96055603      60.96055603      60.96055603      60.96055603      60.96055603      60.96055603      60.96055603
          50.29245758      50.29245758     121.92111206     121.92111206     121.92111206     121.92111206      60.96055603     121.92111206      60.96055603      60.96055603      60.96055603      60.96055603      60.96055603      60.96055603      60.96055603      45.72041702      45.72041702      60.96055603      60.96055603      60.96055603
          60.96055603     121.92111206     121.92111206      60.96055603      60.96055603      60.96055603      60.96055603     121.92111206     121.92111206      60.96055603      45.72041702      60.96055603      60.96055603      60.96055603      60.96055603      60.96055603      60.96055603      60.96055603      60.96055603     121.92111206
         121.92111206     121.92111206     121.92111206      60.96055603      60.96055603      60.96055603      60.96055603     121.92111206     121.92111206      60.96055603      60.96055603      45.72041702      45.72041702      60.96055603      45.72041702      60.96055603      60.96055603      60.96055603     121.92111206      83.82076263
          60.96055603      60.96055603      60.96055603     121.92111206     121.92111206     121.92111206      45.72041702      45.72041702      45.72041702      45.72041702      45.72041702      60.96055603      50.29245758     121.92111206      83.82076263      60.96055603      60.96055603      60.96055603     121.92111206     121.92111206
          60.96055603      60.96055603      45.72041702      45.72041702      45.72041702      45.72041702      60.96055603      60.96055603     121.92111206      60.96055603      45.72041702      45.72041702      60.96055603      60.96055603      60.96055603      60.96055603      60.96055603      60.96055603      60.96055603     121.92111206
         121.92111206      60.96055603      60.96055603      45.72041702      60.96055603      60.96055603      60.96055603      60.96055603      60.96055603     121.92111206     121.92111206      60.96055603      60.96055603      60.96055603     121.92111206      60.96055603     121.92111206      45.72041702      45.72041702      45.72041702
          60.96055603      60.96055603      60.96055603     121.92111206     121.92111206      45.72041702      45.72041702      45.72041702      45.72041702      45.72041702      60.96055603      60.96055603     121.92111206      60.96055603      60.96055603      60.96055603     121.92111206      60.96055603      60.96055603      60.96055603
         121.92111206      83.82076263      60.96055603     121.92111206     121.92111206      60.96055603      60.96055603      60.96055603      60.96055603      60.96055603      60.96055603      60.96055603      60.96055603      60.96055603      60.96055603     121.92111206      60.96055603      60.96055603      50.29245758     121.92111206
         121.92111206      45.72041702      60.96055603      60.96055603     121.92111206     121.92111206      60.96055603      60.96055603      60.96055603     121.92111206     121.92111206      60.96055603      60.96055603      60.96055603     121.92111206      83.82076263     121.92111206      60.96055603      60.96055603      60.96055603
          60.96055603      60.96055603      60.96055603      60.96055603      60.96055603      60.96055603      60.96055603     121.92111206     121.92111206      60.96055603     121.92111206      60.96055603      60.96055603      60.96055603     121.92111206      83.82076263      60.96055603      60.96055603      60.96055603      50.29245758
          50.29245758      50.29245758      50.29245758      50.29245758      50.29245758      50.29245758      50.29245758      50.29245758      50.29245758      50.29245758      50.29245758      50.29245758      60.96055603      50.29245758      50.29245758      60.96055603      50.29245758      60.96055603      60.96055603      60.96055603
          83.82076263      83.82076263      83.82076263      83.82076263      83.82076263      83.82076263      83.82076263      60.96055603      50.29245758      83.82076263      83.82076263      60.96055603      60.96055603      60.96055603      60.96055603     121.92111206     121.92111206      60.96055603      45.72041702      60.96055603
          60.96055603      60.96055603      50.29245758     121.92111206     121.92111206      83.82076263      45.72041702      60.96055603      83.82076263      60.96055603      50.29245758      60.96055603      60.96055603     121.92111206      60.96055603      60.96055603      50.29245758      50.29245758      50.29245758      50.29245758
          50.29245758      50.29245758      50.29245758      50.29245758      50.29245758      50.29245758      50.29245758      50.29245758      50.29245758      50.29245758      50.29245758      50.29245758      50.29245758      50.29245758      50.29245758      50.29245758      50.29245758      50.29245758      50.29245758      50.29245758
          50.29245758      60.96055603      50.29245758      50.29245758      60.96055603      50.29245758      50.29245758      50.29245758      50.29245758      50.29245758      50.29245758      60.96055603      50.29245758      60.96055603      60.96055603      60.96055603      60.96055603      60.96055603      60.96055603      60.96055603
          83.82076263      83.82076263      83.82076263      83.82076263      83.82076263      83.82076263      83.82076263      83.82076263      83.82076263      83.82076263      83.82076263      83.82076263      83.82076263      83.82076263      83.82076263      83.82076263      83.82076263      83.82076263      83.82076263      83.82076263
          60.96055603      60.96055603      50.29245758     121.92111206     121.92111206      83.82076263      83.82076263      83.82076263      60.96055603      50.29245758      60.96055603     121.92111206      60.96055603      50.29245758      50.29245758      50.29245758      50.29245758      50.29245758      50.29245758      50.29245758
          50.29245758      50.29245758      50.29245758      50.29245758      50.29245758      50.29245758      50.29245758      50.29245758      50.29245758      50.29245758      50.29245758      60.96055603      60.96055603      60.96055603      60.96055603      60.96055603      60.96055603      50.29245758      50.29245758      50.29245758
          60.96055603      60.96055603      60.96055603      60.96055603      60.96055603      83.82076263      83.82076263      83.82076263      83.82076263      83.82076263      83.82076263      83.82076263      83.82076263      83.82076263      83.82076263      83.82076263      83.82076263      83.82076263      60.96055603      60.96055603
          60.96055603     121.92111206      83.82076263      83.82076263      83.82076263      60.96055603      50.29245758      50.29245758      50.29245758      50.29245758      50.29245758      50.29245758      50.29245758      50.29245758      60.96055603      60.96055603      60.96055603      60.96055603      60.96055603      60.96055603
          60.96055603      60.96055603      83.82076263      83.82076263      83.82076263      83.82076263      83.82076263      83.82076263      83.82076263      83.82076263      60.96055603      60.96055603      50.29245758     121.92111206     121.92111206      50.29245758      50.29245758      50.29245758      50.29245758      50.29245758
          60.96055603      60.96055603      60.96055603      60.96055603      83.82076263      83.82076263      83.82076263      83.82076263      50.29245758      45.72041702      50.29245758      60.96055603      60.96055603      60.96055603      60.96055603     121.92111206     121.92111206      60.96055603      45.72041702      45.72041702
          45.72041702      60.96055603      60.96055603      60.96055603     121.92111206      83.82076263      50.29245758      45.72041702      60.96055603      60.96055603      83.82076263      50.29245758     121.92111206      60.96055603      60.96055603      45.72041702      50.29245758      50.29245758      50.29245758      50.29245758
          50.29245758      50.29245758      50.29245758      50.29245758      50.29245758      50.29245758      50.29245758      60.96055603      50.29245758      50.29245758      60.96055603      60.96055603      83.82076263      83.82076263      83.82076263      83.82076263      83.82076263      83.82076263      83.82076263      83.82076263
          83.82076263      60.96055603      50.29245758      50.29245758      60.96055603      60.96055603      83.82076263      50.29245758      50.29245758      60.96055603      60.96055603      60.96055603      60.96055603      83.82076263      83.82076263      83.82076263      83.82076263      50.29245758      50.29245758      60.96055603
          60.96055603      60.96055603      60.96055603     121.92111206      83.82076263      83.82076263      50.29245758      45.72041702      45.72041702      50.29245758      50.29245758      50.29245758      50.29245758      60.96055603      60.96055603      50.29245758      60.96055603      60.96055603      83.82076263      83.82076263
          83.82076263      60.96055603      50.29245758      60.96055603      60.96055603      83.82076263      50.29245758      50.29245758      60.96055603      60.96055603      83.82076263      83.82076263      83.82076263      50.29245758      60.96055603      60.96055603     121.92111206      50.29245758      83.82076263      60.96055603
          50.29245758      60.96055603      83.82076263      50.29245758      50.29245758      60.96055603      60.96055603      83.82076263      83.82076263      83.82076263      50.29245758      50.29245758      50.29245758      50.29245758      50.29245758      50.29245758      50.29245758      50.29245758      50.29245758      50.29245758
          50.29245758      50.29245758      50.29245758      50.29245758      50.29245758      50.29245758      50.29245758      50.29245758      50.29245758      50.29245758      50.29245758      50.29245758      50.29245758      50.29245758      50.29245758      50.29245758      50.29245758      50.29245758      50.29245758      50.29245758
          45.72041702      45.72041702      45.72041702      45.72041702      50.29245758      50.29245758      50.29245758      50.29245758      50.29245758      50.29245758      50.29245758      50.29245758      50.29245758      50.29245758      50.29245758      50.29245758      50.29245758      50.29245758      50.29245758      50.29245758
          50.29245758      50.29245758      50.29245758      50.29245758      50.29245758      50.29245758      50.29245758      50.29245758      50.29245758      45.72041702      45.72041702      60.96055603     121.92111206      60.96055603     121.92111206      60.96055603      60.96055603      60.96055603      60.96055603      60.96055603
         121.92111206      60.96055603      45.72041702     121.92111206      60.96055603     121.92111206      50.29245758      50.29245758      50.29245758      50.29245758      50.29245758      50.29245758      60.96055603      50.29245758      50.29245758      83.82076263      83.82076263      83.82076263      50.29245758      50.29245758
          50.29245758      50.29245758      60.96055603      60.96055603      83.82076263      83.82076263      60.96055603      60.96055603      50.29245758     121.92111206     121.92111206      45.72041702      45.72041702      45.72041702      50.29245758      60.96055603      60.96055603      60.96055603     121.92111206     121.92111206
          60.96055603      45.72041702      45.72041702      50.29245758      60.96055603     121.92111206      60.96055603      60.96055603      50.29245758      50.29245758      50.29245758      50.29245758      50.29245758      50.29245758      50.29245758      50.29245758      50.29245758      50.29245758      50.29245758      50.29245758
          50.29245758      50.29245758      50.29245758      50.29245758      50.29245758      50.29245758      50.29245758      50.29245758      50.29245758      50.29245758      50.29245758      50.29245758      50.29245758      60.96055603      60.96055603      50.29245758      50.29245758      83.82076263      83.82076263      83.82076263
          83.82076263      83.82076263      83.82076263      83.82076263      83.82076263      60.96055603      60.96055603      50.29245758      50.29245758      60.96055603      83.82076263      45.72041702      45.72041702      45.72041702      60.96055603      50.29245758      60.96055603      60.96055603      60.96055603      60.96055603
         121.92111206     121.92111206      50.29245758      83.82076263      50.29245758      50.29245758      50.29245758      50.29245758      50.29245758      50.29245758      50.29245758      50.29245758      50.29245758      50.29245758      50.29245758      50.29245758      50.29245758      50.29245758      50.29245758      50.29245758
          50.29245758      50.29245758      50.29245758      50.29245758      50.29245758      50.29245758      50.29245758      50.29245758      50.29245758      50.29245758      50.29245758      50.29245758      50.29245758      50.29245758      50.29245758      50.29245758      50.29245758      50.29245758      50.29245758      50.29245758
          50.29245758      50.29245758      50.29245758      50.29245758      50.29245758      50.29245758      50.29245758      50.29245758      50.29245758      50.29245758      50.29245758      50.29245758      50.29245758      50.29245758      50.29245758      50.29245758      50.29245758      50.29245758      50.29245758      50.29245758