# File generated by Flopy version 3.9.0.dev0 on 09/06/2024 at 07:54:40.
BEGIN options
  PRINT_STAGE
  PRINT_FLOWS
  STAGE  FILEOUT  flow.sfr.stage.bin
  BUDGET  FILEOUT  flow.sfr.cbc
  LENGTH_CONVERSION       1.00000000
  TIME_CONVERSION   86400.00000000
END options

BEGIN dimensions
  NREACHES  108
END dimensions

BEGIN packagedata
  1  1 734      12.50000000       3.04800000  2.00000000E-04      -0.09269083       0.30480000       1.91118308  0.03  1       1.00000000  0
  2  1 735      25.00000000       3.04800000  2.00000000E-04      -0.09644083       0.30480000       1.91118308  0.03  2       1.00000000  0
  3  1 736      25.00000000       3.04800000  2.00000000E-04      -0.10144083       0.30480000       1.91118308  0.03  2       1.00000000  0
  4  1 737      25.00000000       3.04800000  2.00000000E-04      -0.10644083       0.30480000       1.91118308  0.03  2       1.00000000  0
  5  1 738      25.00000000       3.04800000  2.00000000E-04      -0.11144083       0.30480000       1.91118308  0.03  2       1.00000000  0
  6  1 739      25.00000000       3.04800000  2.00000000E-04      -0.11644083       0.30480000       1.91118308  0.03  2       1.00000000  0
  7  1 740      25.00000000       3.04800000  2.00000000E-04      -0.12144083       0.30480000       1.91118308  0.03  2       1.00000000  0
  8  1 741      25.00000000       3.04800000  2.00000000E-04      -0.12644083       0.30480000       1.91118308  0.03  2       1.00000000  0
  9  1 742      25.00000000       3.04800000  2.00000000E-04      -0.13144083       0.30480000       1.91118308  0.03  2       1.00000000  0
  10  1 743      25.00000000       3.04800000  2.00000000E-04      -0.13644083       0.30480000       1.91118308  0.03  2       1.00000000  0
  11  1 744      25.00000000       3.04800000  2.00000000E-04      -0.14144083       0.30480000       1.91118308  0.03  2       1.00000000  0
  12  1 745      25.00000000       3.04800000  2.00000000E-04      -0.14644083       0.30480000       1.91118308  0.03  2       1.00000000  0
  13  1 746      25.00000000       3.04800000  2.00000000E-04      -0.15144083       0.30480000       1.91118308  0.03  2       1.00000000  0
  14  1 747      25.00000000       3.04800000  2.00000000E-04      -0.15644083       0.30480000       1.91118308  0.03  2       1.00000000  0
  15  1 748      25.00000000       3.04800000  2.00000000E-04      -0.16144083       0.30480000       1.91118308  0.03  2       1.00000000  0
  16  1 749      25.00000000       3.04800000  2.00000000E-04      -0.16644083       0.30480000       1.91118308  0.03  2       1.00000000  0
  17  1 750      25.00000000       3.04800000  2.00000000E-04      -0.17144083       0.30480000       1.91118308  0.03  2       1.00000000  0
  18  1 751      25.00000000       3.04800000  2.00000000E-04      -0.17644083       0.30480000       1.91118308  0.03  2       1.00000000  0
  19  1 752      25.00000000       3.04800000  2.00000000E-04      -0.18144083       0.30480000       1.91118308  0.03  2       1.00000000  0
  20  1 753      25.00000000       3.04800000  2.00000000E-04      -0.18644083       0.30480000       1.91118308  0.03  2       1.00000000  0
  21  1 754      25.00000000       3.04800000  2.00000000E-04      -0.19144083       0.30480000       1.91118308  0.03  2       1.00000000  0
  22  1 755      25.00000000       3.04800000  2.00000000E-04      -0.19644083       0.30480000       1.91118308  0.03  2       1.00000000  0
  23  1 756      25.00000000       3.04800000  2.00000000E-04      -0.20144083       0.30480000       1.91118308  0.03  2       1.00000000  0
  24  1 763      25.00000000       3.04800000  2.00000000E-04      -0.20644083       0.30480000       1.91118308  0.03  2       1.00000000  0
  25  1 764      25.00000000       3.04800000  2.00000000E-04      -0.21144083       0.30480000       1.91118308  0.03  2       1.00000000  0
  26  1 765      25.00000000       3.04800000  2.00000000E-04      -0.21644083       0.30480000       1.91118308  0.03  2       1.00000000  0
  27  1 766      25.00000000       3.04800000  2.00000000E-04      -0.22144083       0.30480000       1.91118308  0.03  2       1.00000000  0
  28  1 767      25.00000000       3.04800000  2.00000000E-04      -0.22644083       0.30480000       1.91118308  0.03  2       1.00000000  0
  29  1 757      25.00000000       3.04800000  2.00000000E-04      -0.23144083       0.30480000       1.91118308  0.03  2       1.00000000  0
  30  1 758      25.00000000       3.04800000  2.00000000E-04      -0.23644083       0.30480000       1.91118308  0.03  2       1.00000000  0
  31  1 759      25.00000000       3.04800000  2.00000000E-04      -0.24144083       0.30480000       1.91118308  0.03  2       1.00000000  0
  32  1 760      25.00000000       3.04800000  2.00000000E-04      -0.24644083       0.30480000       1.91118308  0.03  2       1.00000000  0
  33  1 761      25.00000000       3.04800000  2.00000000E-04      -0.25144083       0.30480000       1.91118308  0.03  2       1.00000000  0
  34  1 762      25.00000000       3.04800000  2.00000000E-04      -0.25644083       0.30480000       1.91118308  0.03  2       1.00000000  0
  35  1 768      25.00000000       3.04800000  2.00000000E-04      -0.26144083       0.30480000       1.91118308  0.03  2       1.00000000  0
  36  1 769      25.00000000       3.04800000  2.00000000E-04      -0.26644083       0.30480000       1.91118308  0.03  2       1.00000000  0
  37  1 770      25.00000000       3.04800000  2.00000000E-04      -0.27144083       0.30480000       1.91118308  0.03  2       1.00000000  0
  38  1 771      25.00000000       3.04800000  2.00000000E-04      -0.27644083       0.30480000       1.91118308  0.03  2       1.00000000  0
  39  1 772      25.00000000       3.04800000  2.00000000E-04      -0.28144083       0.30480000       1.91118308  0.03  2       1.00000000  0
  40  1 773      25.00000000       3.04800000  2.00000000E-04      -0.28644083       0.30480000       1.91118308  0.03  2       1.00000000  0
  41  1 774      25.00000000       3.04800000  2.00000000E-04      -0.29144083       0.30480000       1.91118308  0.03  2       1.00000000  0
  42  1 775      25.00000000       3.04800000  2.00000000E-04      -0.29644083       0.30480000       1.91118308  0.03  2       1.00000000  0
  43  1 776      25.00000000       3.04800000  2.00000000E-04      -0.30144083       0.30480000       1.91118308  0.03  2       1.00000000  0
  44  1 777      25.00000000       3.04800000  2.00000000E-04      -0.30644083       0.30480000       1.91118308  0.03  2       1.00000000  0
  45  1 778      25.00000000       3.04800000  2.00000000E-04      -0.31144083       0.30480000       1.91118308  0.03  2       1.00000000  0
  46  1 779      25.00000000       3.04800000  2.00000000E-04      -0.31644083       0.30480000       1.91118308  0.03  2       1.00000000  0
  47  1 780      25.00000000       3.04800000  2.00000000E-04      -0.32144083       0.30480000       1.91118308  0.03  2       1.00000000  0
  48  1 781      25.00000000       3.04800000  2.00000000E-04      -0.32644083       0.30480000       1.91118308  0.03  2       1.00000000  0
  49  1 782      25.00000000       3.04800000  2.00000000E-04      -0.33144083       0.30480000       1.91118308  0.03  2       1.00000000  0
  50  1 783      25.00000000       3.04800000  2.00000000E-04      -0.33644083       0.30480000       1.91118308  0.03  2       1.00000000  0
  51  1 784      25.00000000       3.04800000  2.00000000E-04      -0.34144083       0.30480000       1.91118308  0.03  2       1.00000000  0
  52  1 785      25.00000000       3.04800000  2.00000000E-04      -0.34644083       0.30480000       1.91118308  0.03  2       1.00000000  0
  53  1 786      25.00000000       3.04800000  2.00000000E-04      -0.35144083       0.30480000       1.91118308  0.03  2       1.00000000  0
  54  1 787      25.00000000       3.04800000  2.00000000E-04      -0.35644083       0.30480000       1.91118308  0.03  2       1.00000000  0
  55  1 788      25.00000000       3.04800000  2.00000000E-04      -0.36144083       0.30480000       1.91118308  0.03  2       1.00000000  0
  56  1 789      25.00000000       3.04800000  2.00000000E-04      -0.36644083       0.30480000       1.91118308  0.03  2       1.00000000  0
  57  1 790      25.00000000       3.04800000  2.00000000E-04      -0.37144083       0.30480000       1.91118308  0.03  2       1.00000000  0
  58  1 791      25.00000000       3.04800000  2.00000000E-04      -0.37644083       0.30480000       1.91118308  0.03  2       1.00000000  0
  59  1 792      25.00000000       3.04800000  2.00000000E-04      -0.38144083       0.30480000       1.91118308  0.03  2       1.00000000  0
  60  1 793      25.00000000       3.04800000  2.00000000E-04      -0.38644083       0.30480000       1.91118308  0.03  2       1.00000000  0
  61  1 794      25.00000000       3.04800000  2.00000000E-04      -0.39144083       0.30480000       1.91118308  0.03  2       1.00000000  0
  62  1 795      25.00000000       3.04800000  2.00000000E-04      -0.39644083       0.30480000       1.91118308  0.03  2       1.00000000  0
  63  1 796      25.00000000       3.04800000  2.00000000E-04      -0.40144083       0.30480000       1.91118308  0.03  2       1.00000000  0
  64  1 797      25.00000000       3.04800000  2.00000000E-04      -0.40644083       0.30480000       1.91118308  0.03  2       1.00000000  0
  65  1 798      25.00000000       3.04800000  2.00000000E-04      -0.41144083       0.30480000       1.91118308  0.03  2       1.00000000  0
  66  1 799      25.00000000       3.04800000  2.00000000E-04      -0.41644083       0.30480000       1.91118308  0.03  2       1.00000000  0
  67  1 800      25.00000000       3.04800000  2.00000000E-04      -0.42144083       0.30480000       1.91118308  0.03  2       1.00000000  0
  68  1 807      25.00000000       3.04800000  2.00000000E-04      -0.42644083       0.30480000       1.91118308  0.03  2       1.00000000  0
  69  1 808      25.00000000       3.04800000  2.00000000E-04      -0.43144083       0.30480000       1.91118308  0.03  2       1.00000000  0
  70  1 809      25.00000000       3.04800000  2.00000000E-04      -0.43644083       0.30480000       1.91118308  0.03  2       1.00000000  0
  71  1 810      25.00000000       3.04800000  2.00000000E-04      -0.44144083       0.30480000       1.91118308  0.03  2       1.00000000  0
  72  1 811      25.00000000       3.04800000  2.00000000E-04      -0.44644083       0.30480000       1.91118308  0.03  2       1.00000000  0
  73  1 812      25.00000000       3.04800000  2.00000000E-04      -0.45144083       0.30480000       1.91118308  0.03  2       1.00000000  0
  74  1 813      25.00000000       3.04800000  2.00000000E-04      -0.45644083       0.30480000       1.91118308  0.03  2       1.00000000  0
  75  1 801      25.00000000       3.04800000  2.00000000E-04      -0.46144083       0.30480000       1.91118308  0.03  2       1.00000000  0
  76  1 802      25.00000000       3.04800000  2.00000000E-04      -0.46644083       0.30480000       1.91118308  0.03  2       1.00000000  0
  77  1 803      25.00000000       3.04800000  2.00000000E-04      -0.47144083       0.30480000       1.91118308  0.03  2       1.00000000  0
  78  1 804      25.00000000       3.04800000  2.00000000E-04      -0.47644083       0.30480000       1.91118308  0.03  2       1.00000000  0
  79  1 805      25.00000000       3.04800000  2.00000000E-04      -0.48144083       0.30480000       1.91118308  0.03  2       1.00000000  0
  80  1 806      25.00000000       3.04800000  2.00000000E-04      -0.48644083       0.30480000       1.91118308  0.03  2       1.00000000  0
  81  1 814      25.00000000       3.04800000  2.00000000E-04      -0.49144083       0.30480000       1.91118308  0.03  2       1.00000000  0
  82  1 815      25.00000000       3.04800000  2.00000000E-04      -0.49644083       0.30480000       1.91118308  0.03  2       1.00000000  0
  83  1 816      25.00000000       3.04800000  2.00000000E-04      -0.50144083       0.30480000       1.91118308  0.03  2       1.00000000  0
  84  1 817      25.00000000       3.04800000  2.00000000E-04      -0.50644083       0.30480000       1.91118308  0.03  2       1.00000000  0
  85  1 818      25.00000000       3.04800000  2.00000000E-04      -0.51144083       0.30480000       1.91118308  0.03  2       1.00000000  0
  86  1 819      25.00000000       3.04800000  2.00000000E-04      -0.51644083       0.30480000       1.91118308  0.03  2       1.00000000  0
  87  1 820      25.00000000       3.04800000  2.00000000E-04      -0.52144083       0.30480000       1.91118308  0.03  2       1.00000000  0
  88  1 821      25.00000000       3.04800000  2.00000000E-04      -0.52644083       0.30480000       1.91118308  0.03  2       1.00000000  0
  89  1 822      25.00000000       3.04800000  2.00000000E-04      -0.53144083       0.30480000       1.91118308  0.03  2       1.00000000  0
  90  1 823      25.00000000       3.04800000  2.00000000E-04      -0.53644083       0.30480000       1.91118308  0.03  2       1.00000000  0
  91  1 824      25.00000000       3.04800000  2.00000000E-04      -0.54144083       0.30480000       1.91118308  0.03  2       1.00000000  0
  92  1 825      25.00000000       3.04800000  2.00000000E-04      -0.54644083       0.30480000       1.91118308  0.03  2       1.00000000  0
  93  1 826      25.00000000       3.04800000  2.00000000E-04      -0.55144083       0.30480000       1.91118308  0.03  2       1.00000000  0
  94  1 827      25.00000000       3.04800000  2.00000000E-04      -0.55644083       0.30480000       1.91118308  0.03  2       1.00000000  0
  95  1 828      25.00000000       3.04800000  2.00000000E-04      -0.56144083       0.30480000       1.91118308  0.03  2       1.00000000  0
  96  1 829      25.00000000       3.04800000  2.00000000E-04      -0.56644083       0.30480000       1.91118308  0.03  2       1.00000000  0
  97  1 830      25.00000000       3.04800000  2.00000000E-04      -0.57144083       0.30480000       1.91118308  0.03  2       1.00000000  0
  98  1 831      25.00000000       3.04800000  2.00000000E-04      -0.57644083       0.30480000       1.91118308  0.03  2       1.00000000  0
  99  1 832      25.00000000       3.04800000  2.00000000E-04      -0.58144083       0.30480000       1.91118308  0.03  2       1.00000000  0
  100  1 833      25.00000000       3.04800000  2.00000000E-04      -0.58644083       0.30480000       1.91118308  0.03  2       1.00000000  0
  101  1 834      25.00000000       3.04800000  2.00000000E-04      -0.59144083       0.30480000       1.91118308  0.03  2       1.00000000  0
  102  1 835      25.00000000       3.04800000  2.00000000E-04      -0.59644083       0.30480000       1.91118308  0.03  2       1.00000000  0
  103  1 836      25.00000000       3.04800000  2.00000000E-04      -0.60144083       0.30480000       1.91118308  0.03  2       1.00000000  0
  104  1 837      25.00000000       3.04800000  2.00000000E-04      -0.60644083       0.30480000       1.91118308  0.03  2       1.00000000  0
  105  1 838      25.00000000       3.04800000  2.00000000E-04      -0.61144083       0.30480000       1.91118308  0.03  2       1.00000000  0
  106  1 839      25.00000000       3.04800000  2.00000000E-04      -0.61644083       0.30480000       1.91118308  0.03  2       1.00000000  0
  107  1 840      21.01215096       3.04800000  2.00000000E-04      -0.62104205       0.30480000       1.91118308  0.03  2       1.00000000  0
  108  1 841       8.51215096       3.04800000  2.00000000E-04      -0.62399448       0.30480000       1.91118308  0.03  1       1.00000000  0
END packagedata

BEGIN connectiondata
  1  -2
  2  1  -3
  3  2  -4
  4  3  -5
  5  4  -6
  6  5  -7
  7  6  -8
  8  7  -9
  9  8  -10
  10  9  -11
  11  10  -12
  12  11  -13
  13  12  -14
  14  13  -15
  15  14  -16
  16  15  -17
  17  16  -18
  18  17  -19
  19  18  -20
  20  19  -21
  21  20  -22
  22  21  -23
  23  22  -24
  24  23  -25
  25  24  -26
  26  25  -27
  27  26  -28
  28  27  -29
  29  28  -30
  30  29  -31
  31  30  -32
  32  31  -33
  33  32  -34
  34  33  -35
  35  34  -36
  36  35  -37
  37  36  -38
  38  37  -39
  39  38  -40
  40  39  -41
  41  40  -42
  42  41  -43
  43  42  -44
  44  43  -45
  45  44  -46
  46  45  -47
  47  46  -48
  48  47  -49
  49  48  -50
  50  49  -51
  51  50  -52
  52  51  -53
  53  52  -54
  54  53  -55
  55  54  -56
  56  55  -57
  57  56  -58
  58  57  -59
  59  58  -60
  60  59  -61
  61  60  -62
  62  61  -63
  63  62  -64
  64  63  -65
  65  64  -66
  66  65  -67
  67  66  -68
  68  67  -69
  69  68  -70
  70  69  -71
  71  70  -72
  72  71  -73
  73  72  -74
  74  73  -75
  75  74  -76
  76  75  -77
  77  76  -78
  78  77  -79
  79  78  -80
  80  79  -81
  81  80  -82
  82  81  -83
  83  82  -84
  84  83  -85
  85  84  -86
  86  85  -87
  87  86  -88
  88  87  -89
  89  88  -90
  90  89  -91
  91  90  -92
  92  91  -93
  93  92  -94
  94  93  -95
  95  94  -96
  96  95  -97
  97  96  -98
  98  97  -99
  99  98  -100
  100  99  -101
  101  100  -102
  102  101  -103
  103  102  -104
  104  103  -105
  105  104  -106
  106  105  -107
  107  106  -108
  108  107
END connectiondata

BEGIN period  1
  1  rainfall  0.0025
  2  rainfall  0.0025
  3  rainfall  0.0025
  4  rainfall  0.0025
  5  rainfall  0.0025
  6  rainfall  0.0025
  7  rainfall  0.0025
  8  rainfall  0.0025
  9  rainfall  0.0025
  10  rainfall  0.0025
  11  rainfall  0.0025
  12  rainfall  0.0025
  13  rainfall  0.0025
  14  rainfall  0.0025
  15  rainfall  0.0025
  16  rainfall  0.0025
  17  rainfall  0.0025
  18  rainfall  0.0025
  19  rainfall  0.0025
  20  rainfall  0.0025
  21  rainfall  0.0025
  22  rainfall  0.0025
  23  rainfall  0.0025
  24  rainfall  0.0025
  25  rainfall  0.0025
  26  rainfall  0.0025
  27  rainfall  0.0025
  28  rainfall  0.0025
  29  rainfall  0.0025
  30  rainfall  0.0025
  31  rainfall  0.0025
  32  rainfall  0.0025
  33  rainfall  0.0025
  34  rainfall  0.0025
  35  rainfall  0.0025
  36  rainfall  0.0025
  37  rainfall  0.0025
  38  rainfall  0.0025
  39  rainfall  0.0025
  40  rainfall  0.0025
  41  rainfall  0.0025
  42  rainfall  0.0025
  43  rainfall  0.0025
  44  rainfall  0.0025
  45  rainfall  0.0025
  46  rainfall  0.0025
  47  rainfall  0.0025
  48  rainfall  0.0025
  49  rainfall  0.0025
  50  rainfall  0.0025
  51  rainfall  0.0025
  52  rainfall  0.0025
  53  rainfall  0.0025
  54  rainfall  0.0025
  55  rainfall  0.0025
  56  rainfall  0.0025
  57  rainfall  0.0025
  58  rainfall  0.0025
  59  rainfall  0.0025
  60  rainfall  0.0025
  61  rainfall  0.0025
  62  rainfall  0.0025
  63  rainfall  0.0025
  64  rainfall  0.0025
  65  rainfall  0.0025
  66  rainfall  0.0025
  67  rainfall  0.0025
  68  rainfall  0.0025
  69  rainfall  0.0025
  70  rainfall  0.0025
  71  rainfall  0.0025
  72  rainfall  0.0025
  73  rainfall  0.0025
  74  rainfall  0.0025
  75  rainfall  0.0025
  76  rainfall  0.0025
  77  rainfall  0.0025
  78  rainfall  0.0025
  79  rainfall  0.0025
  80  rainfall  0.0025
  81  rainfall  0.0025
  82  rainfall  0.0025
  83  rainfall  0.0025
  84  rainfall  0.0025
  85  rainfall  0.0025
  86  rainfall  0.0025
  87  rainfall  0.0025
  88  rainfall  0.0025
  89  rainfall  0.0025
  90  rainfall  0.0025
  91  rainfall  0.0025
  92  rainfall  0.0025
  93  rainfall  0.0025
  94  rainfall  0.0025
  95  rainfall  0.0025
  96  rainfall  0.0025
  97  rainfall  0.0025
  98  rainfall  0.0025
  99  rainfall  0.0025
  100  rainfall  0.0025
  101  rainfall  0.0025
  102  rainfall  0.0025
  103  rainfall  0.0025
  104  rainfall  0.0025
  105  rainfall  0.0025
  106  rainfall  0.0025
  107  rainfall  0.0025
  108  rainfall  0.0025
  1  evaporation  0.0019
  2  evaporation  0.0019
  3  evaporation  0.0019
  4  evaporation  0.0019
  5  evaporation  0.0019
  6  evaporation  0.0019
  7  evaporation  0.0019
  8  evaporation  0.0019
  9  evaporation  0.0019
  10  evaporation  0.0019
  11  evaporation  0.0019
  12  evaporation  0.0019
  13  evaporation  0.0019
  14  evaporation  0.0019
  15  evaporation  0.0019
  16  evaporation  0.0019
  17  evaporation  0.0019
  18  evaporation  0.0019
  19  evaporation  0.0019
  20  evaporation  0.0019
  21  evaporation  0.0019
  22  evaporation  0.0019
  23  evaporation  0.0019
  24  evaporation  0.0019
  25  evaporation  0.0019
  26  evaporation  0.0019
  27  evaporation  0.0019
  28  evaporation  0.0019
  29  evaporation  0.0019
  30  evaporation  0.0019
  31  evaporation  0.0019
  32  evaporation  0.0019
  33  evaporation  0.0019
  34  evaporation  0.0019
  35  evaporation  0.0019
  36  evaporation  0.0019
  37  evaporation  0.0019
  38  evaporation  0.0019
  39  evaporation  0.0019
  40  evaporation  0.0019
  41  evaporation  0.0019
  42  evaporation  0.0019
  43  evaporation  0.0019
  44  evaporation  0.0019
  45  evaporation  0.0019
  46  evaporation  0.0019
  47  evaporation  0.0019
  48  evaporation  0.0019
  49  evaporation  0.0019
  50  evaporation  0.0019
  51  evaporation  0.0019
  52  evaporation  0.0019
  53  evaporation  0.0019
  54  evaporation  0.0019
  55  evaporation  0.0019
  56  evaporation  0.0019
  57  evaporation  0.0019
  58  evaporation  0.0019
  59  evaporation  0.0019
  60  evaporation  0.0019
  61  evaporation  0.0019
  62  evaporation  0.0019
  63  evaporation  0.0019
  64  evaporation  0.0019
  65  evaporation  0.0019
  66  evaporation  0.0019
  67  evaporation  0.0019
  68  evaporation  0.0019
  69  evaporation  0.0019
  70  evaporation  0.0019
  71  evaporation  0.0019
  72  evaporation  0.0019
  73  evaporation  0.0019
  74  evaporation  0.0019
  75  evaporation  0.0019
  76  evaporation  0.0019
  77  evaporation  0.0019
  78  evaporation  0.0019
  79  evaporation  0.0019
  80  evaporation  0.0019
  81  evaporation  0.0019
  82  evaporation  0.0019
  83  evaporation  0.0019
  84  evaporation  0.0019
  85  evaporation  0.0019
  86  evaporation  0.0019
  87  evaporation  0.0019
  88  evaporation  0.0019
  89  evaporation  0.0019
  90  evaporation  0.0019
  91  evaporation  0.0019
  92  evaporation  0.0019
  93  evaporation  0.0019
  94  evaporation  0.0019
  95  evaporation  0.0019
  96  evaporation  0.0019
  97  evaporation  0.0019
  98  evaporation  0.0019
  99  evaporation  0.0019
  100  evaporation  0.0019
  101  evaporation  0.0019
  102  evaporation  0.0019
  103  evaporation  0.0019
  104  evaporation  0.0019
  105  evaporation  0.0019
  106  evaporation  0.0019
  107  evaporation  0.0019
  108  evaporation  0.0019
END period  1

