# File generated by Flopy version 3.9.0.dev0 on 09/06/2024 at 07:54:40.
BEGIN options
  BOUNDNAMES
END options

BEGIN dimensions
  MAXBOUND  3
END dimensions

BEGIN period  1
  6 2571 -1.90000000E+03 P3
  6 2244 -7.60000000E+03 P1
  6 2240 -7.60000000E+03 P2
END period  1

