# File generated by Flopy version 3.9.0.dev0 on 09/06/2024 at 07:54:40.
BEGIN options
  CONTINUE
END options

BEGIN timing
  TDIS6  flow.tdis
END timing

BEGIN models
  gwf6  flow.nam  flow
END models

BEGIN exchanges
END exchanges

BEGIN solutiongroup  1
  ims6  flow.ims  flow
END solutiongroup  1

