# File generated by Flopy version 3.3.5 on 07/06/2022 at 13:42:22.
BEGIN options
END options

BEGIN timing
  TDIS6  regional_model.tdis
END timing

BEGIN models
  gwf6  regional_model.nam  regional_model
END models

BEGIN exchanges
END exchanges

BEGIN solutiongroup  1
  ims6  regional_model.ims  regional_model
END solutiongroup  1

