# File generated by Flopy version 3.3.5 on 07/06/2022 at 13:42:22.
BEGIN options
END options

BEGIN linear
  LINEAR_ACCELERATION  bicgstab
END linear

