# File generated by Flopy version 3.3.5 on 07/06/2022 at 13:42:22.
BEGIN options
  SAVE_FLOWS
  NEWTON  UNDER_RELAXATION
END options

BEGIN packages
  DISV6  regional_model.disv  disv
  IC6  regional_model.ic  ic
  NPF6  regional_model.npf  npf
  RCH6  regional_model.rcha  rcha_0
  EVT6  regional_model.evta  evta_0
  DRN6  regional_model.drn  drn_0
  OC6  regional_model.oc  oc
END packages

