# File generated by Flopy version 3.3.5 on 07/06/2022 at 13:42:26.
BEGIN options
END options

BEGIN dimensions
  MAXBOUND  3398
END dimensions

BEGIN period  1
  1 41    4111.00000000       0.00100000
  1 50    4066.00000000       0.00100000
  1 55    4156.00000000       0.00100000
  1 62    4156.00000000       0.00100000
  1 67    4066.00000000       0.00100000
  1 70    4066.00000000       0.00100000
  1 71    4156.00000000       0.00100000
  1 75    4066.00000000       0.00100000
  1 77    4156.00000000       0.00100000
  1 82    4066.00000000       0.00100000
  1 85    4098.00000000       0.00100000
  1 90    4065.00000000       0.00100000
  1 94    4098.00000000       0.00100000
  1 105    4098.00000000       0.00100000
  1 109    4065.00000000       0.00100000
  1 112    4065.00000000       0.00100000
  1 116    4098.00000000       0.00100000
  1 123    4074.00000000       0.00100000
  1 125    4065.00000000       0.00100000
  1 139    4052.00000000       0.00100000
  1 142    4074.00000000       0.00100000
  1 153    4074.00000000       0.00100000
  1 156    4052.00000000       0.00100000
  1 167    4074.00000000       0.00100000
  1 168    4052.00000000       0.00100000
  1 170    4028.00000000       0.00100000
  1 178    4052.00000000       0.00100000
  1 185    4033.00000000       0.00100000
  1 188    4207.00000000       0.00100000
  1 193    4028.00000000       0.00100000
  1 196    4148.00000000       0.00100000
  1 198    4148.00000000       0.00100000
  1 205    4148.00000000       0.00100000
  1 206    4033.00000000       0.00100000
  1 208    4148.00000000       0.00100000
  1 211    4104.00000000       0.00100000
  1 212    4028.00000000       0.00100000
  1 214    4104.00000000       0.00100000
  1 221    4104.00000000       0.00100000
  1 226    4104.00000000       0.00100000
  1 233    4033.00000000       0.00100000
  1 234    4078.00000000       0.00100000
  1 235    4028.00000000       0.00100000
  1 239    4078.00000000       0.00100000
  1 257    4071.00000000       0.00100000
  1 258    4028.00000000       0.00100000
  1 260    4033.00000000       0.00100000
  1 266    4014.00000000       0.00100000
  1 273    4071.00000000       0.00100000
  1 274    4001.00000000       0.00100000
  1 284    4001.00000000       0.00100000
  1 285    4071.00000000       0.00100000
  1 291    4014.00000000       0.00100000
  1 293    4071.00000000       0.00100000
  1 297    4014.00000000       0.00100000
  1 298    4018.00000000       0.00100000
  1 299    4001.00000000       0.00100000
  1 308    4014.00000000       0.00100000
  1 312    4001.00000000       0.00100000
  1 318    4018.00000000       0.00100000
  1 324    4010.00000000       0.00100000
  1 327    4029.00000000       0.00100000
  1 329    3971.00000000       0.00100000
  1 332    4029.00000000       0.00100000
  1 340    4029.00000000       0.00100000
  1 343    3971.00000000       0.00100000
  1 344    4010.00000000       0.00100000
  1 351    3985.00000000       0.00100000
  1 354    4010.00000000       0.00100000
  1 357    3971.00000000       0.00100000
  1 373    3985.00000000       0.00100000
  1 376    4010.00000000       0.00100000
  1 377    3971.00000000       0.00100000
  1 378    3985.00000000       0.00100000
  1 387    3931.00000000       0.00100000
  1 388    4026.00000000       0.00100000
  1 392    3981.00000000       0.00100000
  1 396    3954.00000000       0.00100000
  1 398    4026.00000000       0.00100000
  1 399    3931.00000000       0.00100000
  1 410    3954.00000000       0.00100000
  1 412    3981.00000000       0.00100000
  1 415    3931.00000000       0.00100000
  1 418    3981.00000000       0.00100000
  1 420    3954.00000000       0.00100000
  1 429    3954.00000000       0.00100000
  1 431    3954.00000000       0.00100000
  1 433    3931.00000000       0.00100000
  1 435    3981.00000000       0.00100000
  1 441    3931.00000000       0.00100000
  1 448    3931.00000000       0.00100000
  1 449    3924.00000000       0.00100000
  1 450    3981.00000000       0.00100000
  1 458    3924.00000000       0.00100000
  1 462    3980.00000000       0.00100000
  1 475    3924.00000000       0.00100000
  1 485    3980.00000000       0.00100000
  1 490    3924.00000000       0.00100000
  1 494    4268.00000000       0.00100000
  1 505    3980.00000000       0.00100000
  1 509    3924.00000000       0.00100000
  1 523    4268.00000000       0.00100000
  1 524    3924.00000000       0.00100000
  1 526    3980.00000000       0.00100000
  1 535    4281.00000000       0.00100000
  1 538    3965.00000000       0.00100000
  1 542    3944.00000000       0.00100000
  1 555    4281.00000000       0.00100000
  1 557    3965.00000000       0.00100000
  1 569    3944.00000000       0.00100000
  1 570    4208.00000000       0.00100000
  1 576    4208.00000000       0.00100000
  1 577    3965.00000000       0.00100000
  1 581    4160.00000000       0.00100000
  1 582    4160.00000000       0.00100000
  1 592    4160.00000000       0.00100000
  1 599    4208.00000000       0.00100000
  1 602    4143.00000000       0.00100000
  1 605    4160.00000000       0.00100000
  1 609    3944.00000000       0.00100000
  1 612    4118.00000000       0.00100000
  1 614    4118.00000000       0.00100000
  1 616    4118.00000000       0.00100000
  1 617    3971.00000000       0.00100000
  1 619    4208.00000000       0.00100000
  1 625    4123.00000000       0.00100000
  1 634    4118.00000000       0.00100000
  1 638    4087.00000000       0.00100000
  1 639    4123.00000000       0.00100000
  1 648    3971.00000000       0.00100000
  1 650    3944.00000000       0.00100000
  1 656    4087.00000000       0.00100000
  1 663    4084.00000000       0.00100000
  1 671    4125.00000000       0.00100000
  1 678    3938.00000000       0.00100000
  1 680    4084.00000000       0.00100000
  1 681    3913.00000000       0.00100000
  1 687    4125.00000000       0.00100000
  1 692    4125.00000000       0.00100000
  1 696    4047.00000000       0.00100000
  1 707    4047.00000000       0.00100000
  1 708    4028.00000000       0.00100000
  1 710    3948.00000000       0.00100000
  1 716    3913.00000000       0.00100000
  1 718    4047.00000000       0.00100000
  1 721    3938.00000000       0.00100000
  1 725    4028.00000000       0.00100000
  1 727    3913.00000000       0.00100000
  1 728    3938.00000000       0.00100000
  1 732    4047.00000000       0.00100000
  1 736    3938.00000000       0.00100000
  1 742    3948.00000000       0.00100000
  1 749    4028.00000000       0.00100000
  1 750    4047.00000000       0.00100000
  1 754    3948.00000000       0.00100000
  1 756    3938.00000000       0.00100000
  1 767    4014.00000000       0.00100000
  1 773    3984.00000000       0.00100000
  1 779    3913.00000000       0.00100000
  1 782    4028.00000000       0.00100000
  1 786    4004.00000000       0.00100000
  1 793    3943.00000000       0.00100000
  1 795    3984.00000000       0.00100000
  1 797    4246.00000000       0.00100000
  1 802    4004.00000000       0.00100000
  1 805    4052.00000000       0.00100000
  1 821    3871.00000000       0.00100000
  1 824    3993.00000000       0.00100000
  1 825    3985.00000000       0.00100000
  1 826    4004.00000000       0.00100000
  1 842    3993.00000000       0.00100000
  1 845    4207.00000000       0.00100000
  1 847    3985.00000000       0.00100000
  1 849    3943.00000000       0.00100000
  1 854    3979.00000000       0.00100000
  1 863    3966.00000000       0.00100000
  1 864    3871.00000000       0.00100000
  1 869    3993.00000000       0.00100000
  1 870    3985.00000000       0.00100000
  1 871    3985.00000000       0.00100000
  1 876    4066.00000000       0.00100000
  1 880    3979.00000000       0.00100000
  1 884    3966.00000000       0.00100000
  1 885    3871.00000000       0.00100000
  1 887    3943.00000000       0.00100000
  1 890    4207.00000000       0.00100000
  1 896    3985.00000000       0.00100000
  1 900    4066.00000000       0.00100000
  1 904    3943.00000000       0.00100000
  1 914    3979.00000000       0.00100000
  1 917    4207.00000000       0.00100000
  1 923    3871.00000000       0.00100000
  1 927    3943.00000000       0.00100000
  1 936    4066.00000000       0.00100000
  1 937    3979.00000000       0.00100000
  1 940    4207.00000000       0.00100000
  1 944    3966.00000000       0.00100000
  1 954    4030.00000000       0.00100000
  1 956    3871.00000000       0.00100000
  1 959    3931.00000000       0.00100000
  1 965    4066.00000000       0.00100000
  1 972    3974.00000000       0.00100000
  1 974    4207.00000000       0.00100000
  1 988    4039.00000000       0.00100000
  1 990    4147.00000000       0.00100000
  1 1000    4030.00000000       0.00100000
  1 1004    3878.00000000       0.00100000
  1 1008    3957.00000000       0.00100000
  1 1016    3931.00000000       0.00100000
  1 1018    4147.00000000       0.00100000
  1 1019    3939.00000000       0.00100000
  1 1020    4039.00000000       0.00100000
  1 1026    3957.00000000       0.00100000
  1 1034    4147.00000000       0.00100000
  1 1035    3878.00000000       0.00100000
  1 1038    3939.00000000       0.00100000
  1 1047    3957.00000000       0.00100000
  1 1049    3931.00000000       0.00100000
  1 1051    4039.00000000       0.00100000
  1 1057    4147.00000000       0.00100000
  1 1061    3939.00000000       0.00100000
  1 1071    3957.00000000       0.00100000
  1 1072    4039.00000000       0.00100000
  1 1076    3878.00000000       0.00100000
  1 1077    4131.00000000       0.00100000
  1 1084    3939.00000000       0.00100000
  1 1088    3931.00000000       0.00100000
  1 1095    4131.00000000       0.00100000
  1 1097    3957.00000000       0.00100000
  1 1100    4039.00000000       0.00100000
  1 1102    3878.00000000       0.00100000
  1 1107    3939.00000000       0.00100000
  1 1116    4131.00000000       0.00100000
  1 1127    3949.00000000       0.00100000
  1 1134    3895.00000000       0.00100000
  1 1137    4064.00000000       0.00100000
  1 1138    4114.00000000       0.00100000
  1 1140    4030.00000000       0.00100000
  1 1146    3971.00000000       0.00100000
  1 1149    3872.00000000       0.00100000
  1 1154    4114.00000000       0.00100000
  1 1159    3856.00000000       0.00100000
  1 1167    3895.00000000       0.00100000
  1 1168    4064.00000000       0.00100000
  1 1169    4069.00000000       0.00100000
  1 1174    4030.00000000       0.00100000
  1 1175    3971.00000000       0.00100000
  1 1186    3872.00000000       0.00100000
  1 1189    4069.00000000       0.00100000
  1 1195    4284.00000000       0.00100000
  1 1196    3856.00000000       0.00100000
  1 1202    3895.00000000       0.00100000
  1 1212    4069.00000000       0.00100000
  1 1213    3856.00000000       0.00100000
  1 1219    3971.00000000       0.00100000
  1 1228    4069.00000000       0.00100000
  1 1231    3872.00000000       0.00100000
  1 1232    4030.00000000       0.00100000
  1 1240    4284.00000000       0.00100000
  1 1241    4064.00000000       0.00100000
  1 1244    3895.00000000       0.00100000
  1 1258    4017.00000000       0.00100000
  1 1261    3856.00000000       0.00100000
  1 1263    4064.00000000       0.00100000
  1 1267    4069.00000000       0.00100000
  1 1270    4231.00000000       0.00100000
  1 1273    3955.00000000       0.00100000
  1 1281    3872.00000000       0.00100000
  1 1282    3895.00000000       0.00100000
  1 1291    4073.00000000       0.00100000
  1 1293    3804.00000000       0.00100000
  1 1294    3951.00000000       0.00100000
  1 1295    4019.00000000       0.00100000
  1 1297    4231.00000000       0.00100000
  1 1304    3916.00000000       0.00100000
  1 1308    3803.00000000       0.00100000
  1 1313    3979.00000000       0.00100000
  1 1321    3915.00000000       0.00100000
  1 1323    3951.00000000       0.00100000
  1 1342    3915.00000000       0.00100000
  1 1346    4015.00000000       0.00100000
  1 1347    4019.00000000       0.00100000
  1 1350    3916.00000000       0.00100000
  1 1354    4231.00000000       0.00100000
  1 1363    3803.00000000       0.00100000
  1 1365    3951.00000000       0.00100000
  1 1367    3979.00000000       0.00100000
  1 1371    3804.00000000       0.00100000
  1 1377    3862.00000000       0.00100000
  1 1385    4015.00000000       0.00100000
  1 1388    4229.00000000       0.00100000
  1 1394    3916.00000000       0.00100000
  1 1396    3862.00000000       0.00100000
  1 1400    4019.00000000       0.00100000
  1 1401    3951.00000000       0.00100000
  1 1404    3804.00000000       0.00100000
  1 1407    3803.00000000       0.00100000
  1 1409    3979.00000000       0.00100000
  1 1414    4229.00000000       0.00100000
  1 1416    4015.00000000       0.00100000
  1 1417    3862.00000000       0.00100000
  1 1432    3803.00000000       0.00100000
  1 1435    3916.00000000       0.00100000
  1 1436    3862.00000000       0.00100000
  1 1437    4019.00000000       0.00100000
  1 1439    4015.00000000       0.00100000
  1 1441    3804.00000000       0.00100000
  1 1448    3979.00000000       0.00100000
  1 1449    3951.00000000       0.00100000
  1 1453    4182.00000000       0.00100000
  1 1462    3966.00000000       0.00100000
  1 1469    3752.00000000       0.00100000
  1 1472    3929.00000000       0.00100000
  1 1473    3878.00000000       0.00100000
  1 1478    4009.00000000       0.00100000
  1 1481    3892.00000000       0.00100000
  1 1490    4182.00000000       0.00100000
  1 1493    3795.00000000       0.00100000
  1 1494    3934.00000000       0.00100000
  1 1505    3810.00000000       0.00100000
  1 1508    4009.00000000       0.00100000
  1 1513    3929.00000000       0.00100000
  1 1515    3934.00000000       0.00100000
  1 1516    3752.00000000       0.00100000
  1 1518    3892.00000000       0.00100000
  1 1520    3810.00000000       0.00100000
  1 1524    3966.00000000       0.00100000
  1 1527    3795.00000000       0.00100000
  1 1528    3929.00000000       0.00100000
  1 1534    3961.00000000       0.00100000
  1 1539    3966.00000000       0.00100000
  1 1544    3795.00000000       0.00100000
  1 1546    3934.00000000       0.00100000
  1 1548    3752.00000000       0.00100000
  1 1554    3929.00000000       0.00100000
  1 1560    4182.00000000       0.00100000
  1 1562    3810.00000000       0.00100000
  1 1569    3795.00000000       0.00100000
  1 1571    3961.00000000       0.00100000
  1 1574    3892.00000000       0.00100000
  1 1578    4182.00000000       0.00100000
  1 1583    3966.00000000       0.00100000
  1 1596    3910.00000000       0.00100000
  1 1606    3892.00000000       0.00100000
  1 1613    3961.00000000       0.00100000
  1 1616    3934.00000000       0.00100000
  1 1617    3810.00000000       0.00100000
  1 1618    3933.00000000       0.00100000
  1 1623    4159.00000000       0.00100000
  1 1625    3752.00000000       0.00100000
  1 1626    3947.00000000       0.00100000
  1 1635    3795.00000000       0.00100000
  1 1644    3758.00000000       0.00100000
  1 1646    3804.00000000       0.00100000
  1 1647    3875.00000000       0.00100000
  1 1650    3726.00000000       0.00100000
  1 1660    3874.00000000       0.00100000
  1 1669    3863.00000000       0.00100000
  1 1671    3947.00000000       0.00100000
  1 1675    3933.00000000       0.00100000
  1 1679    3804.00000000       0.00100000
  1 1684    3875.00000000       0.00100000
  1 1688    3726.00000000       0.00100000
  1 1694    3758.00000000       0.00100000
  1 1699    3874.00000000       0.00100000
  1 1702    3863.00000000       0.00100000
  1 1706    4159.00000000       0.00100000
  1 1708    3933.00000000       0.00100000
  1 1709    3947.00000000       0.00100000
  1 1710    4159.00000000       0.00100000
  1 1722    3804.00000000       0.00100000
  1 1726    3875.00000000       0.00100000
  1 1729    3726.00000000       0.00100000
  1 1736    3874.00000000       0.00100000
  1 1740    3863.00000000       0.00100000
  1 1741    4159.00000000       0.00100000
  1 1743    3758.00000000       0.00100000
  1 1744    3875.00000000       0.00100000
  1 1749    3933.00000000       0.00100000
  1 1755    3947.00000000       0.00100000
  1 1759    3800.00000000       0.00100000
  1 1761    3726.00000000       0.00100000
  1 1773    4137.00000000       0.00100000
  1 1782    3758.00000000       0.00100000
  1 1784    3863.00000000       0.00100000
  1 1787    3874.00000000       0.00100000
  1 1789    4137.00000000       0.00100000
  1 1792    3901.00000000       0.00100000
  1 1793    3800.00000000       0.00100000
  1 1799    3947.00000000       0.00100000
  1 1805    3867.00000000       0.00100000
  1 1806    3726.00000000       0.00100000
  1 1815    3875.00000000       0.00100000
  1 1820    3747.00000000       0.00100000
  1 1825    4150.00000000       0.00100000
  1 1828    4150.00000000       0.00100000
  1 1832    4162.00000000       0.00100000
  1 1835    4150.00000000       0.00100000
  1 1838    3745.00000000       0.00100000
  1 1843    3833.00000000       0.00100000
  1 1845    4150.00000000       0.00100000
  1 1849    3867.00000000       0.00100000
  1 1850    3728.00000000       0.00100000
  1 1856    4162.00000000       0.00100000
  1 1860    3901.00000000       0.00100000
  1 1861    3925.00000000       0.00100000
  1 1871    4098.00000000       0.00100000
  1 1873    3808.00000000       0.00100000
  1 1874    3847.00000000       0.00100000
  1 1875    4162.00000000       0.00100000
  1 1880    3747.00000000       0.00100000
  1 1885    4098.00000000       0.00100000
  1 1891    4098.00000000       0.00100000
  1 1893    3728.00000000       0.00100000
  1 1898    3745.00000000       0.00100000
  1 1900    3833.00000000       0.00100000
  1 1905    3808.00000000       0.00100000
  1 1913    3901.00000000       0.00100000
  1 1922    3925.00000000       0.00100000
  1 1924    3728.00000000       0.00100000
  1 1927    3847.00000000       0.00100000
  1 1934    4298.00000000       0.00100000
  1 1937    3724.00000000       0.00100000
  1 1940    3724.00000000       0.00100000
  1 1944    4098.00000000       0.00100000
  1 1951    3745.00000000       0.00100000
  1 1953    3808.00000000       0.00100000
  1 1956    3847.00000000       0.00100000
  1 1957    3747.00000000       0.00100000
  1 1961    3833.00000000       0.00100000
  1 1971    4098.00000000       0.00100000
  1 1972    3908.00000000       0.00100000
  1 1973    3901.00000000       0.00100000
  1 1974    3724.00000000       0.00100000
  1 1984    3747.00000000       0.00100000
  1 1986    3724.00000000       0.00100000
  1 1987    3724.00000000       0.00100000
  1 1994    3728.00000000       0.00100000
  1 1998    4298.00000000       0.00100000
  1 2000    3808.00000000       0.00100000
  1 2003    3745.00000000       0.00100000
  1 2004    3847.00000000       0.00100000
  1 2008    3833.00000000       0.00100000
  1 2010    3728.00000000       0.00100000
  1 2015    4067.00000000       0.00100000
  1 2020    3695.00000000       0.00100000
  1 2026    3901.00000000       0.00100000
  1 2029    3908.00000000       0.00100000
  1 2035    4281.00000000       0.00100000
  1 2036    3808.00000000       0.00100000
  1 2045    3677.00000000       0.00100000
  1 2050    3695.00000000       0.00100000
  1 2052    3728.00000000       0.00100000
  1 2056    3722.00000000       0.00100000
  1 2058    3719.00000000       0.00100000
  1 2065    4079.00000000       0.00100000
  1 2067    3884.00000000       0.00100000
  1 2070    3822.00000000       0.00100000
  1 2071    3719.00000000       0.00100000
  1 2074    3804.00000000       0.00100000
  1 2089    3857.00000000       0.00100000
  1 2092    3707.00000000       0.00100000
  1 2093    4281.00000000       0.00100000
  1 2096    3871.00000000       0.00100000
  1 2101    3722.00000000       0.00100000
  1 2106    4079.00000000       0.00100000
  1 2113    3754.00000000       0.00100000
  1 2117    3707.00000000       0.00100000
  1 2122    3686.00000000       0.00100000
  1 2124    3884.00000000       0.00100000
  1 2130    3822.00000000       0.00100000
  1 2134    4079.00000000       0.00100000
  1 2135    3677.00000000       0.00100000
  1 2139    3707.00000000       0.00100000
  1 2140    3722.00000000       0.00100000
  1 2143    3730.00000000       0.00100000
  1 2147    3804.00000000       0.00100000
  1 2151    3754.00000000       0.00100000
  1 2154    3730.00000000       0.00100000
  1 2157    3731.00000000       0.00100000
  1 2162    3686.00000000       0.00100000
  1 2164    3857.00000000       0.00100000
  1 2165    3731.00000000       0.00100000
  1 2171    3871.00000000       0.00100000
  1 2177    3686.00000000       0.00100000
  1 2179    3884.00000000       0.00100000
  1 2182    4281.00000000       0.00100000
  1 2184    3722.00000000       0.00100000
  1 2187    3731.00000000       0.00100000
  1 2190    3731.00000000       0.00100000
  1 2191    3707.00000000       0.00100000
  1 2193    3829.00000000       0.00100000
  1 2199    4281.00000000       0.00100000
  1 2202    3722.00000000       0.00100000
  1 2203    4079.00000000       0.00100000
  1 2205    3686.00000000       0.00100000
  1 2210    3730.00000000       0.00100000
  1 2211    3677.00000000       0.00100000
  1 2212    3730.00000000       0.00100000
  1 2216    3804.00000000       0.00100000
  1 2223    3740.00000000       0.00100000
  1 2226    3731.00000000       0.00100000
  1 2227    3686.00000000       0.00100000
  1 2232    3722.00000000       0.00100000
  1 2236    3871.00000000       0.00100000
  1 2238    3731.00000000       0.00100000
  1 2239    3731.00000000       0.00100000
  1 2244    3740.00000000       0.00100000
  1 2246    3689.00000000       0.00100000
  1 2247    3857.00000000       0.00100000
  1 2248    3677.00000000       0.00100000
  1 2254    4049.00000000       0.00100000
  1 2256    3677.00000000       0.00100000
  1 2262    3884.00000000       0.00100000
  1 2267    3731.00000000       0.00100000
  1 2270    3689.00000000       0.00100000
  1 2271    3829.00000000       0.00100000
  1 2276    3740.00000000       0.00100000
  1 2289    3731.00000000       0.00100000
  1 2292    3804.00000000       0.00100000
  1 2302    3740.00000000       0.00100000
  1 2304    3677.00000000       0.00100000
  1 2306    4274.00000000       0.00100000
  1 2309    4049.00000000       0.00100000
  1 2312    3713.00000000       0.00100000
  1 2317    3857.00000000       0.00100000
  1 2319    3689.00000000       0.00100000
  1 2322    3871.00000000       0.00100000
  1 2327    3714.00000000       0.00100000
  1 2328    3740.00000000       0.00100000
  1 2330    3677.00000000       0.00100000
  1 2333    3713.00000000       0.00100000
  1 2334    3829.00000000       0.00100000
  1 2339    3714.00000000       0.00100000
  1 2342    3677.00000000       0.00100000
  1 2355    3713.00000000       0.00100000
  1 2356    3689.00000000       0.00100000
  1 2363    3715.00000000       0.00100000
  1 2367    3721.00000000       0.00100000
  1 2368    3884.00000000       0.00100000
  1 2369    3777.00000000       0.00100000
  1 2372    3991.00000000       0.00100000
  1 2373    3713.00000000       0.00100000
  1 2377    3777.00000000       0.00100000
  1 2381    3657.00000000       0.00100000
  1 2386    3713.00000000       0.00100000
  1 2390    3715.00000000       0.00100000
  1 2395    3806.00000000       0.00100000
  1 2400    3814.00000000       0.00100000
  1 2403    3657.00000000       0.00100000
  1 2405    4257.00000000       0.00100000
  1 2414    3869.00000000       0.00100000
  1 2416    3991.00000000       0.00100000
  1 2418    3784.00000000       0.00100000
  1 2425    4020.00000000       0.00100000
  1 2429    3777.00000000       0.00100000
  1 2437    3721.00000000       0.00100000
  1 2439    3777.00000000       0.00100000
  1 2442    3657.00000000       0.00100000
  1 2448    3991.00000000       0.00100000
  1 2452    3772.00000000       0.00100000
  1 2458    3814.00000000       0.00100000
  1 2460    3806.00000000       0.00100000
  1 2468    3784.00000000       0.00100000
  1 2470    3869.00000000       0.00100000
  1 2471    4257.00000000       0.00100000
  1 2477    3772.00000000       0.00100000
  1 2481    4020.00000000       0.00100000
  1 2486    3657.00000000       0.00100000
  1 2501    3721.00000000       0.00100000
  1 2503    3869.00000000       0.00100000
  1 2507    3919.00000000       0.00100000
  1 2509    4020.00000000       0.00100000
  1 2510    3991.00000000       0.00100000
  1 2518    3814.00000000       0.00100000
  1 2520    3772.00000000       0.00100000
  1 2525    3806.00000000       0.00100000
  1 2528    3653.00000000       0.00100000
  1 2540    3869.00000000       0.00100000
  1 2541    3784.00000000       0.00100000
  1 2542    4257.00000000       0.00100000
  1 2547    4020.00000000       0.00100000
  1 2553    3653.00000000       0.00100000
  1 2554    3814.00000000       0.00100000
  1 2555    3943.00000000       0.00100000
  1 2556    3772.00000000       0.00100000
  1 2568    3943.00000000       0.00100000
  1 2570    3721.00000000       0.00100000
  1 2584    3653.00000000       0.00100000
  1 2586    3806.00000000       0.00100000
  1 2588    3772.00000000       0.00100000
  1 2590    3919.00000000       0.00100000
  1 2591    4020.00000000       0.00100000
  1 2597    4257.00000000       0.00100000
  1 2602    3721.00000000       0.00100000
  1 2607    3869.00000000       0.00100000
  1 2608    3784.00000000       0.00100000
  1 2609    3814.00000000       0.00100000
  1 2610    3804.00000000       0.00100000
  1 2612    3943.00000000       0.00100000
  1 2613    3657.00000000       0.00100000
  1 2626    3767.00000000       0.00100000
  1 2629    3797.00000000       0.00100000
  1 2630    3804.00000000       0.00100000
  1 2634    3770.00000000       0.00100000
  1 2637    3974.00000000       0.00100000
  1 2646    3804.00000000       0.00100000
  1 2650    3876.00000000       0.00100000
  1 2652    3693.00000000       0.00100000
  1 2653    3804.00000000       0.00100000
  1 2654    3775.00000000       0.00100000
  1 2657    3804.00000000       0.00100000
  1 2658    3797.00000000       0.00100000
  1 2659    3781.00000000       0.00100000
  1 2662    3808.00000000       0.00100000
  1 2664    3790.00000000       0.00100000
  1 2666    3974.00000000       0.00100000
  1 2669    3950.00000000       0.00100000
  1 2671    3657.00000000       0.00100000
  1 2677    3693.00000000       0.00100000
  1 2679    3797.00000000       0.00100000
  1 2684    4244.00000000       0.00100000
  1 2685    3797.00000000       0.00100000
  1 2689    3781.00000000       0.00100000
  1 2690    3797.00000000       0.00100000
  1 2698    3876.00000000       0.00100000
  1 2699    3781.00000000       0.00100000
  1 2702    3950.00000000       0.00100000
  1 2713    3908.00000000       0.00100000
  1 2718    3693.00000000       0.00100000
  1 2722    3775.00000000       0.00100000
  1 2728    3797.00000000       0.00100000
  1 2734    4244.00000000       0.00100000
  1 2736    3778.00000000       0.00100000
  1 2741    3790.00000000       0.00100000
  1 2747    3808.00000000       0.00100000
  1 2752    3770.00000000       0.00100000
  1 2754    3790.00000000       0.00100000
  1 2757    3797.00000000       0.00100000
  1 2759    3950.00000000       0.00100000
  1 2765    3783.00000000       0.00100000
  1 2766    3693.00000000       0.00100000
  1 2767    3908.00000000       0.00100000
  1 2768    3790.00000000       0.00100000
  1 2773    4244.00000000       0.00100000
  1 2777    3693.00000000       0.00100000
  1 2778    3778.00000000       0.00100000
  1 2779    3783.00000000       0.00100000
  1 2781    3783.00000000       0.00100000
  1 2783    3790.00000000       0.00100000
  1 2789    3804.00000000       0.00100000
  1 2790    3797.00000000       0.00100000
  1 2791    3797.00000000       0.00100000
  1 2798    3797.00000000       0.00100000
  1 2799    3775.00000000       0.00100000
  1 2804    3876.00000000       0.00100000
  1 2807    3775.00000000       0.00100000
  1 2808    3770.00000000       0.00100000
  1 2814    3950.00000000       0.00100000
  1 2818    3908.00000000       0.00100000
  1 2819    3775.00000000       0.00100000
  1 2820    3783.00000000       0.00100000
  1 2824    3808.00000000       0.00100000
  1 2825    3876.00000000       0.00100000
  1 2829    3778.00000000       0.00100000
  1 2832    3797.00000000       0.00100000
  1 2837    3778.00000000       0.00100000
  1 2838    3790.00000000       0.00100000
  1 2840    3819.00000000       0.00100000
  1 2844    3775.00000000       0.00100000
  1 2852    3778.00000000       0.00100000
  1 2853    3819.00000000       0.00100000
  1 2854    3778.00000000       0.00100000
  1 2860    3908.00000000       0.00100000
  1 2862    3657.00000000       0.00100000
  1 2870    3950.00000000       0.00100000
  1 2871    3657.00000000       0.00100000
  1 2873    3657.00000000       0.00100000
  1 2874    3804.00000000       0.00100000
  1 2878    3693.00000000       0.00100000
  1 2881    3819.00000000       0.00100000
  1 2885    3819.00000000       0.00100000