# File generated by Flopy version 3.3.5 on 07/06/2022 at 13:42:26.
BEGIN options
  BUDGET  FILEOUT  regional_model.cbc
  HEAD  FILEOUT  regional_model.hds
END options

BEGIN period  1
  SAVE  HEAD  ALL
  SAVE  BUDGET  ALL
END period  1

