# File generated by Flopy version 3.3.5 on 07/06/2022 at 13:42:25.
BEGIN options
END options

BEGIN griddata
  strt  LAYERED
    INTERNAL  FACTOR  1.0
        4278.00000000    4208.00000000    4157.00000000    4176.00000000    4139.00000000    4165.00000000    4202.00000000    4096.00000000    4154.00000000    4200.00000000    4135.00000000    4135.00000000    4124.00000000    4116.00000000    4226.00000000    4124.00000000    4135.00000000    4237.00000000    4162.00000000    4200.00000000
        4215.00000000    4116.00000000    4277.00000000    4221.00000000    4111.00000000    4111.00000000    4200.00000000    4219.00000000    4200.00000000    4190.00000000    4142.00000000    4188.00000000    4111.00000000    4196.00000000    4211.00000000    4127.00000000    4135.00000000    4200.00000000    4176.00000000    4195.00000000
        4111.00000000    4211.00000000    4200.00000000    4235.00000000    4144.00000000    4088.00000000    4153.00000000    4066.00000000    4159.00000000    4066.00000000    4156.00000000    4126.00000000    4180.00000000    4066.00000000    4156.00000000    4088.00000000    4111.00000000    4180.00000000    4157.00000000    4066.00000000
        4066.00000000    4156.00000000    4156.00000000    4190.00000000    4111.00000000    4088.00000000    4066.00000000    4066.00000000    4156.00000000    4066.00000000    4156.00000000    4156.00000000    4066.00000000    4270.00000000    4066.00000000    4156.00000000    4156.00000000    4156.00000000    4066.00000000    4127.00000000
        4132.00000000    4066.00000000    4156.00000000    4065.00000000    4098.00000000    4281.00000000    4125.00000000    4098.00000000    4088.00000000    4065.00000000    4079.00000000    4186.00000000    4098.00000000    4098.00000000    4098.00000000    4079.00000000    4132.00000000    4172.00000000    4065.00000000    4079.00000000
        4098.00000000    4065.00000000    4254.00000000    4258.00000000    4098.00000000    4098.00000000    4194.00000000    4111.00000000    4065.00000000    4079.00000000    4098.00000000    4065.00000000    4128.00000000    4065.00000000    4098.00000000    4098.00000000    4106.00000000    4079.00000000    4098.00000000    4112.00000000
        4106.00000000    4070.00000000    4074.00000000    4052.00000000    4065.00000000    4281.00000000    4184.00000000    4074.00000000    4179.00000000    4085.00000000    4192.00000000    4145.00000000    4074.00000000    4127.00000000    4187.00000000    4052.00000000    4187.00000000    4138.00000000    4052.00000000    4074.00000000
        4106.00000000    4074.00000000    4070.00000000    4070.00000000    4098.00000000    4074.00000000    4101.00000000    4074.00000000    4085.00000000    4102.00000000    4052.00000000    4048.00000000    4074.00000000    4074.00000000    4229.00000000    4052.00000000    4288.00000000    4247.00000000    4229.00000000    4162.00000000
        4070.00000000    4229.00000000    4128.00000000    4060.00000000    4060.00000000    4074.00000000    4074.00000000    4052.00000000    4033.00000000    4028.00000000    4078.00000000    4070.00000000    4074.00000000    4099.00000000    4052.00000000    4033.00000000    4057.00000000    4052.00000000    4048.00000000    4303.00000000
        4028.00000000    4229.00000000    4207.00000000    4184.00000000    4033.00000000    4062.00000000    4028.00000000    4207.00000000    4148.00000000    4148.00000000    4028.00000000    4062.00000000    4028.00000000    4104.00000000    4148.00000000    4148.00000000    4104.00000000    4148.00000000    4028.00000000    4104.00000000
        4078.00000000    4207.00000000    4207.00000000    4207.00000000    4148.00000000    4033.00000000    4033.00000000    4148.00000000    4148.00000000    4104.00000000    4104.00000000    4028.00000000    4028.00000000    4104.00000000    4048.00000000    4220.00000000    4148.00000000    4078.00000000    4060.00000000    4060.00000000
        4104.00000000    4093.00000000    4078.00000000    4028.00000000    4099.00000000    4104.00000000    4148.00000000    4115.00000000    4165.00000000    4202.00000000    4148.00000000    4053.00000000    4033.00000000    4078.00000000    4028.00000000    4032.00000000    4104.00000000    4057.00000000    4078.00000000    4104.00000000
        4078.00000000    4033.00000000    4294.00000000    4249.00000000    4060.00000000    4028.00000000    4053.00000000    4028.00000000    4033.00000000    4104.00000000    4249.00000000    4067.00000000    4078.00000000    4169.00000000    4050.00000000    4169.00000000    4071.00000000    4028.00000000    4001.00000000    4033.00000000
        4071.00000000    4043.00000000    4011.00000000    4138.00000000    4071.00000000    4014.00000000    4001.00000000    4043.00000000    4057.00000000    4150.00000000    4018.00000000    4032.00000000    4071.00000000    4001.00000000    4011.00000000    4001.00000000    4071.00000000    4018.00000000    4011.00000000    4014.00000000
        4071.00000000    4014.00000000    4202.00000000    4001.00000000    4071.00000000    4014.00000000    4258.00000000    4245.00000000    4018.00000000    4014.00000000    4014.00000000    4001.00000000    4071.00000000    4063.00000000    4018.00000000    4071.00000000    4014.00000000    4018.00000000    4001.00000000    4106.00000000
        4138.00000000    4082.00000000    4011.00000000    4001.00000000    4014.00000000    3997.00000000    4018.00000000    4014.00000000    4043.00000000    4158.00000000    4071.00000000    4001.00000000    4024.00000000    4018.00000000    4063.00000000    4014.00000000    4024.00000000    4018.00000000    4011.00000000    4018.00000000
        4124.00000000    3997.00000000    4029.00000000    4010.00000000    4023.00000000    3985.00000000    4029.00000000    3971.00000000    3971.00000000    4063.00000000    4010.00000000    4029.00000000    4134.00000000    3994.00000000    4023.00000000    3971.00000000    3971.00000000    4029.00000000    4023.00000000    4029.00000000
        3997.00000000    4070.00000000    3971.00000000    4010.00000000    4010.00000000    3985.00000000    4029.00000000    4124.00000000    4306.00000000    3997.00000000    3985.00000000    4115.00000000    4032.00000000    4010.00000000    3984.00000000    4023.00000000    3971.00000000    3985.00000000    4010.00000000    3981.00000000
        3975.00000000    4084.00000000    3985.00000000    4164.00000000    3971.00000000    4069.00000000    4029.00000000    3997.00000000    4164.00000000    4294.00000000    4010.00000000    3971.00000000    3985.00000000    4029.00000000    3985.00000000    4010.00000000    3971.00000000    3985.00000000    4026.00000000    3954.00000000
        3994.00000000    4023.00000000    4068.00000000    3975.00000000    3984.00000000    3984.00000000    3931.00000000    4026.00000000    4009.00000000    3994.00000000    3994.00000000    3981.00000000    3931.00000000    3981.00000000    3931.00000000    3954.00000000    4026.00000000    4026.00000000    3931.00000000    3954.00000000
        4026.00000000    4048.00000000    4026.00000000    4213.00000000    3981.00000000    3981.00000000    4026.00000000    3931.00000000    3975.00000000    3954.00000000    3931.00000000    3981.00000000    4041.00000000    4026.00000000    3931.00000000    3954.00000000    3994.00000000    3981.00000000    4111.00000000    3954.00000000
        4284.00000000    3931.00000000    4071.00000000    3931.00000000    3954.00000000    3931.00000000    4346.00000000    4234.00000000    3954.00000000    4197.00000000    3954.00000000    4111.00000000    3931.00000000    4030.00000000    3981.00000000    4038.00000000    4197.00000000    3954.00000000    3981.00000000    4242.00000000
        3931.00000000    3954.00000000    3994.00000000    4031.00000000    3980.00000000    3980.00000000    3980.00000000    3931.00000000    3924.00000000    3981.00000000    3980.00000000    3931.00000000    4126.00000000    4194.00000000    4306.00000000    3924.00000000    3980.00000000    3924.00000000    3980.00000000    4206.00000000
        3992.00000000    3980.00000000    4194.00000000    3980.00000000    3924.00000000    4044.00000000    4005.00000000    4061.00000000    4184.00000000    4190.00000000    3980.00000000    4215.00000000    4206.00000000    3995.00000000    3924.00000000    3924.00000000    4097.00000000    4346.00000000    4311.00000000    4145.00000000
        4177.00000000    4197.00000000    4041.00000000    4154.00000000    3980.00000000    4031.00000000    4208.00000000    3924.00000000    4106.00000000    3924.00000000    4194.00000000    4081.00000000    4268.00000000    4268.00000000    4268.00000000    4242.00000000    3962.00000000    3980.00000000    4087.00000000    4056.00000000
        3932.00000000    4268.00000000    3924.00000000    4268.00000000    3980.00000000    3962.00000000    4008.00000000    4124.00000000    3924.00000000    4016.00000000    3980.00000000    4075.00000000    3962.00000000    3962.00000000    3980.00000000    4268.00000000    4175.00000000    3965.00000000    4003.00000000    4028.00000000
        4242.00000000    4169.00000000    4268.00000000    3924.00000000    3924.00000000    3980.00000000    4034.00000000    3980.00000000    3944.00000000    4208.00000000    3932.00000000    4028.00000000    4068.00000000    4208.00000000    4281.00000000    4160.00000000    4150.00000000    3965.00000000    4033.00000000    4143.00000000
        3965.00000000    3944.00000000    3944.00000000    4294.00000000    4281.00000000    4281.00000000    3971.00000000    4044.00000000    4281.00000000    4089.00000000    3971.00000000    4160.00000000    3932.00000000    4160.00000000    4281.00000000    4088.00000000    3965.00000000    3965.00000000    4100.00000000    4154.00000000
        4208.00000000    4117.00000000    4118.00000000    4118.00000000    3965.00000000    4136.00000000    3971.00000000    4026.00000000    3944.00000000    4208.00000000    4327.00000000    4296.00000000    4277.00000000    4155.00000000    4208.00000000    4208.00000000    3965.00000000    3971.00000000    4014.00000000    4160.00000000
        4160.00000000    4160.00000000    4106.00000000    3944.00000000    4281.00000000    4031.00000000    4118.00000000    4118.00000000    3932.00000000    3944.00000000    4281.00000000    4160.00000000    4123.00000000    4143.00000000    4123.00000000    4117.00000000    4123.00000000    4181.00000000    4208.00000000    4087.00000000
        4187.00000000    4143.00000000    3965.00000000    4311.00000000    4160.00000000    4100.00000000    3948.00000000    3922.00000000    3944.00000000    4143.00000000    4087.00000000    4118.00000000    4106.00000000    4118.00000000    3932.00000000    4118.00000000    3971.00000000    4003.00000000    4208.00000000    4160.00000000
        4208.00000000    4143.00000000    4160.00000000    4087.00000000    4123.00000000    4072.00000000    3965.00000000    4280.00000000    4156.00000000    4124.00000000    4160.00000000    4057.00000000    4160.00000000    4118.00000000    4208.00000000    4271.00000000    4313.00000000    4087.00000000    4123.00000000    3944.00000000
        4118.00000000    3992.00000000    4087.00000000    3948.00000000    4117.00000000    4123.00000000    4192.00000000    3971.00000000    4208.00000000    3944.00000000    4208.00000000    4226.00000000    4192.00000000    4192.00000000    4192.00000000    4087.00000000    4028.00000000    4014.00000000    4133.00000000    4106.00000000
        3922.00000000    4087.00000000    4084.00000000    4156.00000000    4047.00000000    4084.00000000    4303.00000000    4277.00000000    4277.00000000    4028.00000000    4125.00000000    4125.00000000    4047.00000000    3922.00000000    4028.00000000    3938.00000000    3989.00000000    3938.00000000    4009.00000000    4084.00000000
        3913.00000000    4084.00000000    4236.00000000    3995.00000000    3998.00000000    4046.00000000    4125.00000000    3922.00000000    4240.00000000    4246.00000000    3938.00000000    4125.00000000    4028.00000000    4125.00000000    3938.00000000    4047.00000000    4084.00000000    4047.00000000    4187.00000000    3991.00000000
        4125.00000000    3948.00000000    3913.00000000    3938.00000000    4084.00000000    3913.00000000    4047.00000000    4028.00000000    4254.00000000    3948.00000000    4280.00000000    4246.00000000    4014.00000000    4047.00000000    3984.00000000    3913.00000000    4084.00000000    4047.00000000    4125.00000000    3948.00000000
        3938.00000000    3996.00000000    3922.00000000    4100.00000000    4028.00000000    3938.00000000    3913.00000000    3938.00000000    4125.00000000    4047.00000000    3989.00000000    4047.00000000    4104.00000000    4028.00000000    3984.00000000    3938.00000000    4100.00000000    4014.00000000    4205.00000000    4176.00000000
        4092.00000000    3948.00000000    3948.00000000    4047.00000000    3995.00000000    4167.00000000    3913.00000000    3938.00000000    4028.00000000    4047.00000000    3984.00000000    3938.00000000    4083.00000000    3948.00000000    4014.00000000    3938.00000000    4047.00000000    4046.00000000    4118.00000000    4009.00000000
        4092.00000000    4253.00000000    4138.00000000    4028.00000000    4098.00000000    4014.00000000    4014.00000000    3943.00000000    4057.00000000    3984.00000000    4166.00000000    3922.00000000    3984.00000000    4057.00000000    3913.00000000    4246.00000000    4277.00000000    4254.00000000    3913.00000000    4033.00000000
        4066.00000000    4028.00000000    4062.00000000    4098.00000000    3998.00000000    4004.00000000    3938.00000000    3996.00000000    3921.00000000    4208.00000000    3979.00000000    4052.00000000    3943.00000000    4014.00000000    3984.00000000    4062.00000000    4246.00000000    3948.00000000    4033.00000000    4062.00000000
        4204.00000000    4004.00000000    3996.00000000    4178.00000000    4052.00000000    4045.00000000    4004.00000000    4030.00000000    3991.00000000    4207.00000000    4207.00000000    3943.00000000    4033.00000000    3984.00000000    4329.00000000    4329.00000000    4330.00000000    3970.00000000    3996.00000000    4006.00000000
        3871.00000000    4157.00000000    4285.00000000    3993.00000000    3985.00000000    4004.00000000    3993.00000000    3871.00000000    3993.00000000    3988.00000000    4033.00000000    4074.00000000    4001.00000000    3963.00000000    3966.00000000    4052.00000000    3921.00000000    4224.00000000    4207.00000000    4004.00000000
        4038.00000000    3993.00000000    4006.00000000    4285.00000000    4207.00000000    4120.00000000    3985.00000000    4052.00000000    3943.00000000    3921.00000000    3966.00000000    4066.00000000    3966.00000000    3979.00000000    3979.00000000    3985.00000000    4091.00000000    3943.00000000    3943.00000000    3966.00000000
        4004.00000000    3960.00000000    3966.00000000    3871.00000000    4004.00000000    4176.00000000    3871.00000000    3993.00000000    3993.00000000    3985.00000000    3985.00000000    4207.00000000    4066.00000000    3985.00000000    3943.00000000    4066.00000000    4066.00000000    4052.00000000    4091.00000000    3979.00000000
        3921.00000000    4066.00000000    3871.00000000    3966.00000000    3871.00000000    3979.00000000    3943.00000000    4052.00000000    4207.00000000    4207.00000000    4066.00000000    3985.00000000    3993.00000000    4178.00000000    3970.00000000    3985.00000000    4056.00000000    3943.00000000    3963.00000000    4066.00000000
        4133.00000000    4004.00000000    3993.00000000    3943.00000000    4001.00000000    3966.00000000    4001.00000000    3985.00000000    4055.00000000    4032.00000000    3931.00000000    3993.00000000    3979.00000000    3979.00000000    3966.00000000    4016.00000000    4207.00000000    4166.00000000    4052.00000000    4204.00000000
        3985.00000000    3943.00000000    3871.00000000    4074.00000000    3960.00000000    3871.00000000    3943.00000000    4207.00000000    4054.00000000    4084.00000000    4066.00000000    4092.00000000    4138.00000000    3993.00000000    4044.00000000    4066.00000000    3979.00000000    3911.00000000    3989.00000000    4207.00000000
        4122.00000000    4204.00000000    4074.00000000    3966.00000000    4006.00000000    3911.00000000    3871.00000000    4098.00000000    3943.00000000    4103.00000000    3988.00000000    4041.00000000    3871.00000000    4030.00000000    4225.00000000    3871.00000000    3943.00000000    3979.00000000    3931.00000000    4193.00000000
        4103.00000000    4173.00000000    4075.00000000    3960.00000000    4066.00000000    3985.00000000    4225.00000000    4119.00000000    4030.00000000    3943.00000000    4204.00000000    3974.00000000    4000.00000000    4207.00000000    4006.00000000    4299.00000000    4351.00000000    3960.00000000    4030.00000000    4030.00000000
        3934.00000000    4068.00000000    3974.00000000    4112.00000000    3904.00000000    4075.00000000    4039.00000000    4039.00000000    4225.00000000    4147.00000000    4071.00000000    3981.00000000    3878.00000000    3939.00000000    4125.00000000    3939.00000000    4147.00000000    3934.00000000    4147.00000000    4030.00000000
        3957.00000000    3931.00000000    4159.00000000    3878.00000000    4023.00000000    4058.00000000    4058.00000000    3957.00000000    3974.00000000    3974.00000000    4075.00000000    4075.00000000    4039.00000000    4105.00000000    4225.00000000    3931.00000000    3904.00000000    4147.00000000    3939.00000000    4039.00000000
        3966.00000000    3985.00000000    3931.00000000    4076.00000000    4107.00000000    3957.00000000    3878.00000000    3934.00000000    4147.00000000    4030.00000000    4131.00000000    4075.00000000    3957.00000000    4147.00000000    3878.00000000    3939.00000000    4039.00000000    3939.00000000    3904.00000000    3939.00000000
        3989.00000000    4030.00000000    4122.00000000    3904.00000000    3974.00000000    3957.00000000    3957.00000000    3934.00000000    3931.00000000    4147.00000000    4039.00000000    3931.00000000    3974.00000000    3878.00000000    4119.00000000    4155.00000000    4147.00000000    3939.00000000    4131.00000000    3957.00000000
        3939.00000000    4037.00000000    4068.00000000    4225.00000000    4046.00000000    4079.00000000    4317.00000000    4125.00000000    3931.00000000    4039.00000000    3957.00000000    4039.00000000    4147.00000000    4107.00000000    4131.00000000    3878.00000000    4131.00000000    3856.00000000    3934.00000000    3830.00000000
        4001.00000000    3957.00000000    3903.00000000    3939.00000000    3878.00000000    4092.00000000    3966.00000000    3931.00000000    4039.00000000    3965.00000000    4248.00000000    4147.00000000    3939.00000000    4131.00000000    4131.00000000    3872.00000000    3957.00000000    4039.00000000    3985.00000000    4039.00000000
        3904.00000000    3878.00000000    4119.00000000    3966.00000000    4284.00000000    4092.00000000    3939.00000000    3971.00000000    4107.00000000    4322.00000000    4176.00000000    3971.00000000    3931.00000000    4176.00000000    4131.00000000    4131.00000000    4096.00000000    3966.00000000    4045.00000000    4039.00000000
        3988.00000000    4030.00000000    4323.00000000    4064.00000000    4298.00000000    3830.00000000    3949.00000000    4284.00000000    3955.00000000    4012.00000000    4114.00000000    4125.00000000    4064.00000000    3895.00000000    3872.00000000    4069.00000000    4064.00000000    4114.00000000    4092.00000000    4030.00000000
        4004.00000000    3988.00000000    4017.00000000    3949.00000000    4030.00000000    3971.00000000    3949.00000000    4021.00000000    3872.00000000    3895.00000000    4026.00000000    3955.00000000    3988.00000000    4114.00000000    3988.00000000    4105.00000000    4184.00000000    4060.00000000    3856.00000000    3965.00000000
        3872.00000000    4114.00000000    3927.00000000    4028.00000000    3998.00000000    3856.00000000    3895.00000000    4064.00000000    4069.00000000    3895.00000000    3830.00000000    3955.00000000    3895.00000000    4030.00000000    3971.00000000    4001.00000000    4069.00000000    4032.00000000    4115.00000000    4090.00000000
        4017.00000000    4241.00000000    4114.00000000    3971.00000000    4069.00000000    3872.00000000    3856.00000000    4017.00000000    4069.00000000    3949.00000000    4030.00000000    4055.00000000    4067.00000000    4284.00000000    4284.00000000    3856.00000000    4114.00000000    4064.00000000    3926.00000000    3988.00000000
        4064.00000000    3895.00000000    3830.00000000    4287.00000000    3952.00000000    4021.00000000    4069.00000000    4092.00000000    3872.00000000    4114.00000000    4225.00000000    4069.00000000    3856.00000000    3965.00000000    3872.00000000    4067.00000000    4284.00000000    3949.00000000    3971.00000000    4222.00000000
        4073.00000000    3990.00000000    4079.00000000    4069.00000000    3971.00000000    3965.00000000    4082.00000000    4069.00000000    3895.00000000    4085.00000000    3872.00000000    4030.00000000    3799.00000000    4317.00000000    4284.00000000    4055.00000000    4030.00000000    4017.00000000    4069.00000000    4284.00000000
        4064.00000000    4067.00000000    4065.00000000    3895.00000000    4064.00000000    3932.00000000    4017.00000000    3955.00000000    3856.00000000    3955.00000000    4092.00000000    4067.00000000    3903.00000000    3949.00000000    4030.00000000    4361.00000000    4298.00000000    4017.00000000    3971.00000000    3804.00000000
        3856.00000000    4096.00000000    4064.00000000    3830.00000000    3895.00000000    3950.00000000    4069.00000000    3895.00000000    4284.00000000    4231.00000000    3955.00000000    3951.00000000    3955.00000000    4231.00000000    4259.00000000    4229.00000000    4021.00000000    3916.00000000    3895.00000000    4019.00000000
        3872.00000000    3895.00000000    4021.00000000    3979.00000000    3803.00000000    4007.00000000    3897.00000000    4028.00000000    3979.00000000    4073.00000000    4073.00000000    3965.00000000    3804.00000000    3951.00000000    4019.00000000    3875.00000000    4231.00000000    4280.00000000    3799.00000000    4223.00000000
        4212.00000000    3915.00000000    3803.00000000    3916.00000000    4229.00000000    4021.00000000    3799.00000000    3803.00000000    3804.00000000    4020.00000000    4023.00000000    4073.00000000    3979.00000000    4037.00000000    4096.00000000    3910.00000000    3971.00000000    4229.00000000    4015.00000000    4229.00000000
        3915.00000000    3875.00000000    3951.00000000    3961.00000000    4028.00000000    3862.00000000    4019.00000000    3894.00000000    3894.00000000    3862.00000000    4334.00000000    4323.00000000    4032.00000000    3979.00000000    3951.00000000    4021.00000000    3803.00000000    4015.00000000    4229.00000000    4231.00000000
        3804.00000000    3915.00000000    3979.00000000    4105.00000000    3965.00000000    4015.00000000    4019.00000000    4041.00000000    4026.00000000    3916.00000000    4280.00000000    3951.00000000    4134.00000000    4231.00000000    4354.00000000    3862.00000000    4073.00000000    3771.00000000    3799.00000000    3928.00000000
        3915.00000000    3800.00000000    3803.00000000    3854.00000000    3951.00000000    3916.00000000    3979.00000000    3979.00000000    3904.00000000    3803.00000000    3804.00000000    3862.00000000    3965.00000000    4028.00000000    3964.00000000    4019.00000000    3862.00000000    3951.00000000    3951.00000000    3803.00000000
        3799.00000000    4064.00000000    4231.00000000    4015.00000000    4015.00000000    4028.00000000    4231.00000000    4229.00000000    4073.00000000    4231.00000000    4233.00000000    3916.00000000    3961.00000000    3916.00000000    3915.00000000    3862.00000000    3804.00000000    3965.00000000    3979.00000000    4019.00000000
        3951.00000000    3990.00000000    3969.00000000    3804.00000000    3904.00000000    4047.00000000    3803.00000000    3804.00000000    3979.00000000    3894.00000000    4019.00000000    3862.00000000    4055.00000000    4229.00000000    4222.00000000    4015.00000000    3862.00000000    4028.00000000    3915.00000000    4015.00000000
        4035.00000000    3875.00000000    3835.00000000    3961.00000000    3938.00000000    3917.00000000    3951.00000000    3916.00000000    4161.00000000    3979.00000000    4026.00000000    3803.00000000    3990.00000000    3926.00000000    3916.00000000    3862.00000000    4019.00000000    4015.00000000    4015.00000000    3875.00000000
        3804.00000000    3804.00000000    3929.00000000    3991.00000000    3916.00000000    3799.00000000    3961.00000000    3979.00000000    3951.00000000    3838.00000000    3934.00000000    3929.00000000    4182.00000000    4182.00000000    3892.00000000    3771.00000000    3878.00000000    4028.00000000    3810.00000000    4045.00000000
        4055.00000000    3966.00000000    4182.00000000    4182.00000000    4182.00000000    3966.00000000    4134.00000000    3969.00000000    3752.00000000    3934.00000000    3810.00000000    3929.00000000    3878.00000000    3752.00000000    4009.00000000    3917.00000000    3795.00000000    4009.00000000    3838.00000000    3878.00000000
        3892.00000000    3910.00000000    3985.00000000    3926.00000000    4041.00000000    4282.00000000    3752.00000000    4233.00000000    4009.00000000    4182.00000000    4180.00000000    4339.00000000    3795.00000000    3934.00000000    3892.00000000    3961.00000000    3795.00000000    3771.00000000    4009.00000000    3929.00000000
        3878.00000000    3795.00000000    4016.00000000    3966.00000000    3810.00000000    3961.00000000    4016.00000000    4009.00000000    3833.00000000    3795.00000000    3934.00000000    3910.00000000    3929.00000000    4009.00000000    3934.00000000    3752.00000000    3926.00000000    3892.00000000    4174.00000000    3810.00000000
        3833.00000000    3952.00000000    3898.00000000    3966.00000000    4233.00000000    4156.00000000    3795.00000000    3929.00000000    3929.00000000    3827.00000000    3771.00000000    3926.00000000    4129.00000000    3961.00000000    3961.00000000    4016.00000000    3878.00000000    3934.00000000    3966.00000000    3934.00000000
        3966.00000000    3926.00000000    3910.00000000    3795.00000000    3795.00000000    3934.00000000    3892.00000000    3752.00000000    3810.00000000    3893.00000000    4016.00000000    4074.00000000    3752.00000000    3929.00000000    3843.00000000    4182.00000000    4174.00000000    4009.00000000    4269.00000000    4182.00000000
        3942.00000000    3810.00000000    3771.00000000    3929.00000000    3809.00000000    3878.00000000    3934.00000000    3926.00000000    3795.00000000    3771.00000000    3961.00000000    3966.00000000    3938.00000000    3892.00000000    4182.00000000    4210.00000000    3913.00000000    4182.00000000    4152.00000000    3795.00000000
        4159.00000000    3849.00000000    3966.00000000    4055.00000000    4141.00000000    3892.00000000    3893.00000000    3810.00000000    3827.00000000    3961.00000000    3966.00000000    4009.00000000    4077.00000000    3929.00000000    3979.00000000    3910.00000000    3910.00000000    3892.00000000    3878.00000000    3915.00000000
        3934.00000000    3982.00000000    3752.00000000    3810.00000000    4012.00000000    3892.00000000    3937.00000000    3810.00000000    4016.00000000    3795.00000000    3863.00000000    4013.00000000    3961.00000000    4182.00000000    3938.00000000    3934.00000000    3810.00000000    3933.00000000    3947.00000000    4137.00000000
        3859.00000000    4159.00000000    4159.00000000    3989.00000000    3752.00000000    3947.00000000    3950.00000000    3895.00000000    3827.00000000    3966.00000000    3810.00000000    3961.00000000    4055.00000000    3795.00000000    3795.00000000    3774.00000000    3863.00000000    3771.00000000    3806.00000000    3800.00000000
        4323.00000000    3797.00000000    3910.00000000    3758.00000000    3797.00000000    3804.00000000    3875.00000000    3937.00000000    3863.00000000    3726.00000000    3726.00000000    4325.00000000    4041.00000000    3874.00000000    3875.00000000    4004.00000000    4074.00000000    3804.00000000    3804.00000000    3874.00000000
        4210.00000000    4159.00000000    4159.00000000    3933.00000000    3947.00000000    3933.00000000    3758.00000000    3874.00000000    3863.00000000    4159.00000000    3947.00000000    3800.00000000    3966.00000000    4002.00000000    3933.00000000    4053.00000000    3905.00000000    3795.00000000    3804.00000000    3797.00000000
        3863.00000000    3933.00000000    3933.00000000    3875.00000000    3874.00000000    3805.00000000    3861.00000000    3726.00000000    3893.00000000    3915.00000000    3758.00000000    3751.00000000    3931.00000000    3758.00000000    4092.00000000    3800.00000000    3933.00000000    3726.00000000    3874.00000000    3893.00000000
        3947.00000000    3863.00000000    3875.00000000    4159.00000000    4159.00000000    4159.00000000    4100.00000000    3933.00000000    3947.00000000    4159.00000000    4137.00000000    3937.00000000    3947.00000000    3881.00000000    3874.00000000    3874.00000000    4137.00000000    3818.00000000    3804.00000000    3966.00000000