# File generated by Flopy version 3.3.5 on 07/06/2022 at 13:42:26.
BEGIN options
  READASARRAYS
END options

BEGIN period  1
  recharge
    CONSTANT  4.75646880E-09
END period  1

