# File generated by Flopy version 3.3.5 on 07/06/2022 at 13:42:22.
BEGIN options
  TIME_UNITS  seconds
  START_DATE_TIME   2041-01-01T00:00:00-05:00
END options

BEGIN dimensions
  NPER  1
END dimensions

BEGIN perioddata
       1.00000000  1       1.00000000
END perioddata

