# File generated by Flopy version 3.8.0 on 09/13/2024 at 10:23:27.
BEGIN OPTIONS
  AUXILIARY  iface
  BOUNDNAMES
  SAVE_FLOWS
  OBS6  FILEIN  green2010_v3.ob_drob
END OPTIONS

BEGIN DIMENSIONS
  MAXBOUND  176
END DIMENSIONS

BEGIN PERIOD  1
  1 37 7 0.00000000E+00 9.58737169E+03 0 'marsh'
  1 38 7 0.00000000E+00 7.10293328E+03 0 'marsh'
  1 37 8 5.57600886E-01 8.35447559E+03 0 'marsh'
  1 38 8 0.00000000E+00 2.29478312E+04 0 'marsh'
  1 38 9 0.00000000E+00 1.82661583E+04 0 'marsh'
  1 36 13 0.00000000E+00 2.27022632E+04 0 'marsh'
  1 37 13 0.00000000E+00 1.27342912E+04 0 'marsh'
  1 37 14 0.00000000E+00 1.15500040E+04 0 'marsh'
  1 35 17 0.00000000E+00 7.78783679E+03 0 'marsh'
  1 32 18 0.00000000E+00 1.98651025E+04 0 'marsh'
  1 33 18 0.00000000E+00 1.86572924E+04 0 'marsh'
  1 34 18 0.00000000E+00 1.73381371E+04 0 'marsh'
  1 35 18 0.00000000E+00 1.65593698E+04 0 'marsh'
  1 33 22 0.00000000E+00 1.58902628E+04 0 'marsh'
  1 33 23 0.00000000E+00 1.97150655E+04 0 'marsh'
  1 23 36 1.37760005E+00 4.79803495E+03 0 'marsh'
  1 24 36 1.80400043E+00 6.63226440E+03 0 'marsh'
  1 12 54 0.00000000E+00 3.44423732E+03 0 'marsh'
  1 40 7 0.00000000E+00 5.04750869E+03 0 'marsh'
  1 41 7 0.00000000E+00 2.17057352E+03 0 'marsh'
  1 39 8 0.00000000E+00 8.27715311E+03 0 'marsh'
  1 39 9 0.00000000E+00 3.36919409E+02 0 'marsh'
  1 37 9 2.95201551E-01 3.23891769E+03 0 'marsh'
  1 37 6 0.00000000E+00 1.80669402E+03 0 'marsh'
  1 36 16 0.00000000E+00 3.45534600E+03 0 'marsh'
  1 37 15 0.00000000E+00 6.90192142E+03 0 'marsh'
  1 38 14 0.00000000E+00 3.99718653E+03 0 'marsh'
  1 36 12 0.00000000E+00 2.04892478E+03 0 'marsh'
  1 35 13 0.00000000E+00 5.57205939E+03 0 'marsh'
  1 38 13 0.00000000E+00 2.72443181E+03 0 'marsh'
  1 34 17 6.56000596E-01 4.34003155E+03 0 'marsh'
  1 33 17 9.18400884E-01 3.37285547E+03 0 'marsh'
  1 36 18 0.00000000E+00 3.92401403E+03 0 'marsh'
  1 36 17 0.00000000E+00 2.95062217E+03 0 'marsh'
  1 44 18 0.00000000E+00 2.67634154E+03 0 'marsh'
  1 33 24 0.00000000E+00 2.13655396E+03 0 'marsh'
  1 34 22 0.00000000E+00 5.80726218E+03 0 'marsh'
  1 23 35 0.00000000E+00 7.66560931E+03 0 'marsh'
  1 24 35 0.00000000E+00 3.82215712E+03 0 'marsh'
  1 13 54 0.00000000E+00 1.93838230E+03 0 'marsh'
  1 13 53 9.18400102E-01 1.61823423E+03 0 'marsh'
  1 32 8 1.73840049E+00 5.14606682E+03 0 'fresh_wetland'
  1 36 8 1.18080054E+00 5.01543209E+03 0 'fresh_wetland'
  1 31 10 1.80400102E+00 8.23718286E+03 0 'fresh_wetland'
  1 33 10 1.90240073E+00 1.67501605E+04 0 'fresh_wetland'
  1 34 10 1.44320136E+00 6.02501801E+03 0 'fresh_wetland'
  1 31 11 1.77120085E+00 1.61930823E+04 0 'fresh_wetland'
  1 32 11 1.57440153E+00 1.57300866E+04 0 'fresh_wetland'
  1 32 12 1.67280114E+00 1.66424152E+04 0 'fresh_wetland'
  1 35 12 1.70560052E+00 5.68578779E+03 0 'fresh_wetland'
  1 39 12 6.56015748E-02 1.04307235E+04 0 'fresh_wetland'
  1 42 15 2.23040041E+00 7.41752910E+03 0 'fresh_wetland'
  1 30 19 3.28000982E-01 1.80537693E+04 0 'fresh_wetland'
  1 30 21 1.37760064E+00 1.31831198E+04 0 'fresh_wetland'
  1 22 24 1.86959998E+00 8.39001888E+03 0 'fresh_wetland'
  1 26 26 3.37840069E+00 8.74828823E+03 0 'fresh_wetland'
  1 28 26 2.68960017E+00 5.25193224E+03 0 'fresh_wetland'
  1 26 27 3.18160009E+00 2.03408539E+04 0 'fresh_wetland'
  1 27 27 3.21440143E+00 2.13480864E+04 0 'fresh_wetland'
  1 27 28 3.50960017E+00 2.33912189E+04 0 'fresh_wetland'
  1 28 28 3.47680020E+00 1.19689439E+04 0 'fresh_wetland'
  1 22 29 3.73919995E+00 1.31537281E+04 0 'fresh_wetland'
  1 23 29 3.47679981E+00 1.60225638E+04 0 'fresh_wetland'
  1 26 29 3.21440026E+00 1.55434340E+04 0 'fresh_wetland'
  1 16 34 1.27920034E+00 7.10569782E+03 0 'fresh_wetland'
  1 22 35 1.54160019E+00 3.60465345E+03 0 'fresh_wetland'
  1 16 49 3.93601066E-01 7.66144583E+03 0 'fresh_wetland'
  1 31 8 1.64000117E+00 5.75369930E+03 0 'fresh_wetland'
  1 31 9 1.83680079E+00 2.94522470E+03 0 'fresh_wetland'
  1 32 9 1.80400063E+00 1.42715505E+04 0 'fresh_wetland'
  1 32 10 1.64000078E+00 1.31348181E+04 0 'fresh_wetland'
  1 33 9 1.11520177E+00 9.72843732E+03 0 'fresh_wetland'
  1 31 12 1.80400082E+00 4.12488319E+03 0 'fresh_wetland'
  1 33 11 1.41040129E+00 1.09174623E+04 0 'fresh_wetland'
  1 30 11 2.29600055E+00 1.21806514E+03 0 'fresh_wetland'
  1 34 11 1.70560052E+00 2.45433238E+03 0 'fresh_wetland'
  1 33 12 1.21360207E+00 2.56661703E+03 0 'fresh_wetland'
  1 35 11 1.54160029E+00 1.23150836E+04 0 'fresh_wetland'
  1 35 10 1.80400082E+00 2.34090635E+03 0 'fresh_wetland'
  1 40 8 0.00000000E+00 1.87768824E+03 0 'fresh_wetland'
  1 40 7 0.00000000E+00 1.02305169E+03 0 'fresh_wetland'
  1 40 10 1.64000455E-01 2.10563754E+03 0 'fresh_wetland'
  1 39 10 1.96800118E-01 2.94304008E+03 0 'fresh_wetland'
  1 39 11 8.20000880E-01 6.22328123E+03 0 'fresh_wetland'
  1 40 12 0.00000000E+00 1.55748924E+03 0 'fresh_wetland'
  1 39 13 8.20000489E-01 1.31460410E+03 0 'fresh_wetland'
  1 42 14 0.00000000E+00 1.72842316E+03 0 'fresh_wetland'
  1 43 14 0.00000000E+00 1.35083182E+03 0 'fresh_wetland'
  1 34 15 8.79040022E+00 2.18898855E+03 0 'fresh_wetland'
  1 31 19 0.00000000E+00 3.80498396E+03 0 'fresh_wetland'
  1 29 19 9.84001505E-01 8.03537161E+03 0 'fresh_wetland'
  1 30 20 1.37760064E+00 7.17442615E+03 0 'fresh_wetland'
  1 29 21 1.70560052E+00 9.38073560E+03 0 'fresh_wetland'
  1 30 20 1.37760064E+00 7.17442615E+03 0 'fresh_wetland'
  1 30 19 3.28000982E-01 1.80537693E+04 0 'fresh_wetland'
  1 22 30 3.73919995E+00 3.66682556E+03 0 'fresh_wetland'
  1 23 30 3.28000000E+00 4.00996007E+03 0 'fresh_wetland'
  1 28 27 3.14880052E+00 7.20790545E+03 0 'fresh_wetland'
  1 27 26 3.41120066E+00 6.18416903E+03 0 'fresh_wetland'
  1 26 28 3.14879993E+00 1.02092000E+04 0 'fresh_wetland'
  1 27 29 3.24720081E+00 1.07611223E+04 0 'fresh_wetland'
  1 23 33 0.00000000E+00 4.39456310E+03 0 'fresh_wetland'
  1 22 33 7.21600143E-01 3.04104925E+03 0 'fresh_wetland'
  1 22 32 9.80720003E+00 5.36866956E+02 0 'fresh_wetland'
  1 17 50 0.00000000E+00 1.99929304E+03 0 'fresh_wetland'
  1 18 34 1.21360031E+00 3.30889667E+03 0 'fresh_wetland'
  1 20 48 0.00000000E+00 1.41937082E+04 0 'brackish_lake'
  1 20 49 0.00000000E+00 1.07849271E+04 0 'brackish_lake'
  1 17 50 0.00000000E+00 1.19147978E+04 0 'brackish_lake'
  1 18 50 0.00000000E+00 1.44886857E+04 0 'brackish_lake'
  1 19 50 0.00000000E+00 2.08792231E+04 0 'brackish_lake'
  1 20 50 0.00000000E+00 1.13205586E+04 0 'brackish_lake'
  1 19 51 0.00000000E+00 1.40612810E+04 0 'brackish_lake'
  1 27 28 3.50960017E+00 2.14253139E+01 0 'moores_drain'
  1 26 28 3.14879993E+00 2.99502302E+01 0 'moores_drain'
  1 26 27 3.18160009E+00 5.08529805E+01 0 'moores_drain'
  1 26 26 3.37840069E+00 5.08529805E+01 0 'moores_drain'
  1 26 25 3.67360080E+00 5.07553509E+01 0 'moores_drain'
  1 25 24 3.50960095E+00 8.06643533E+00 0 'moores_drain'
  1 26 24 3.31280036E+00 4.63796052E+01 0 'moores_drain'
  1 26 23 3.24720062E+00 6.99042668E+01 0 'moores_drain'
  1 26 22 8.65920034E+00 2.49486419E+00 0 'moores_drain'
  1 27 22 2.62400043E+00 6.32936862E+01 0 'moores_drain'
  1 28 22 2.09920015E+00 5.20229859E+01 0 'moores_drain'
  1 29 22 1.73840030E+00 3.41492569E+00 0 'moores_drain'
  1 29 21 1.70560052E+00 5.79612174E+01 0 'moores_drain'
  1 29 20 1.31200090E+00 5.66041580E+01 0 'moores_drain'
  1 29 19 9.84001505E-01 1.75613505E+01 0 'moores_drain'
  1 30 19 3.28000982E-01 5.12643855E+01 0 'moores_drain'
  1 30 6 0.00000000E+00 2.50000000E+04 0 'passive_drain'
  1 37 7 0.00000000E+00 2.50000000E+04 0 'passive_drain'
  1 29 8 0.00000000E+00 2.50000000E+04 0 'passive_drain'
  1 38 8 0.00000000E+00 2.50000000E+04 0 'passive_drain'
  1 38 9 0.00000000E+00 2.50000000E+04 0 'passive_drain'
  1 29 11 0.00000000E+00 2.50000000E+04 0 'passive_drain'
  1 39 12 6.56015748E-02 2.50000000E+04 0 'passive_drain'
  1 28 13 0.00000000E+00 2.50000000E+04 0 'passive_drain'
  1 36 13 0.00000000E+00 2.50000000E+04 0 'passive_drain'
  1 37 14 0.00000000E+00 2.50000000E+04 0 'passive_drain'
  1 43 14 0.00000000E+00 2.50000000E+04 0 'passive_drain'
  1 38 16 0.00000000E+00 2.50000000E+04 0 'passive_drain'
  1 46 17 0.00000000E+00 2.50000000E+04 0 'passive_drain'
  1 32 18 0.00000000E+00 2.50000000E+04 0 'passive_drain'
  1 33 18 0.00000000E+00 2.50000000E+04 0 'passive_drain'
  1 36 18 0.00000000E+00 2.50000000E+04 0 'passive_drain'
  1 30 19 3.28000982E-01 2.50000000E+04 0 'passive_drain'
  1 45 19 0.00000000E+00 2.50000000E+04 0 'passive_drain'
  1 30 20 1.37760064E+00 2.50000000E+04 0 'passive_drain'
  1 21 21 0.00000000E+00 2.50000000E+04 0 'passive_drain'
  1 33 22 0.00000000E+00 2.50000000E+04 0 'passive_drain'
  1 34 22 0.00000000E+00 2.50000000E+04 0 'passive_drain'
  1 33 23 0.00000000E+00 2.50000000E+04 0 'passive_drain'
  1 35 25 0.00000000E+00 2.50000000E+04 0 'passive_drain'
  1 36 26 0.00000000E+00 2.50000000E+04 0 'passive_drain'
  1 32 30 0.00000000E+00 2.50000000E+04 0 'passive_drain'
  1 15 33 0.00000000E+00 2.50000000E+04 0 'passive_drain'
  1 25 33 0.00000000E+00 2.50000000E+04 0 'passive_drain'
  1 31 33 0.00000000E+00 2.50000000E+04 0 'passive_drain'
  1 29 34 0.00000000E+00 2.50000000E+04 0 'passive_drain'
  1 28 35 0.00000000E+00 2.50000000E+04 0 'passive_drain'
  1 30 37 0.00000000E+00 2.50000000E+04 0 'passive_drain'
  1 28 38 0.00000000E+00 2.50000000E+04 0 'passive_drain'
  1 29 38 0.00000000E+00 2.50000000E+04 0 'passive_drain'
  1 30 38 0.00000000E+00 2.50000000E+04 0 'passive_drain'
  1 31 38 0.00000000E+00 2.50000000E+04 0 'passive_drain'
  1 26 42 0.00000000E+00 2.50000000E+04 0 'passive_drain'
  1 26 44 0.00000000E+00 2.50000000E+04 0 'passive_drain'
  1 7 49 0.00000000E+00 2.50000000E+04 0 'passive_drain'
  1 22 49 0.00000000E+00 2.50000000E+04 0 'passive_drain'
  1 7 50 0.00000000E+00 2.50000000E+04 0 'passive_drain'
  1 19 50 0.00000000E+00 2.50000000E+04 0 'passive_drain'
  1 20 50 0.00000000E+00 2.50000000E+04 0 'passive_drain'
  1 21 50 0.00000000E+00 2.50000000E+04 0 'passive_drain'
  1 20 51 0.00000000E+00 2.50000000E+04 0 'passive_drain'
  1 14 54 0.00000000E+00 2.50000000E+04 0 'passive_drain'
  1 15 56 0.00000000E+00 2.50000000E+04 0 'passive_drain'
END PERIOD  1

