# File generated by Flopy version 3.8.0 on 09/13/2024 at 10:23:26.
BEGIN OPTIONS
  DIGITS  10
END OPTIONS

BEGIN CONTINUOUS  FILEOUT  green2010_v3.ob_gw_out_head.csv
  hd_s16783  head  1 23 24
  hd_s53331  head  1 14 44
  hd_s72782  head  1 15 44
END CONTINUOUS  FILEOUT  green2010_v3.ob_gw_out_head.csv

