# File generated by Flopy version 3.8.0 on 09/13/2024 at 10:23:26.
BEGIN OPTIONS
  SAVE_FLOWS
END OPTIONS

BEGIN GRIDDATA
  iconvert  LAYERED
    CONSTANT  1
    CONSTANT  1
    CONSTANT  1
    CONSTANT  1
    CONSTANT  1
  ss  LAYERED
    CONSTANT  0.0
    CONSTANT  0.0
    CONSTANT  0.0
    CONSTANT  0.0
    CONSTANT  0.0
  sy  LAYERED
    CONSTANT       0.20000000
    CONSTANT       0.20000000
    CONSTANT       0.20000000
    CONSTANT       0.20000000
    CONSTANT       0.20000000
END GRIDDATA

BEGIN PERIOD  1
  TRANSIENT
END PERIOD  1

