# File generated by Flopy version 3.8.0 on 09/13/2024 at 10:23:27.
BEGIN OPTIONS
  DIGITS  10
END OPTIONS

BEGIN CONTINUOUS  FILEOUT  green2010_v3.drob_out_drn.csv
  drn_culvert  drn  moores_drain
END CONTINUOUS  FILEOUT  green2010_v3.drob_out_drn.csv

