# File generated by Flopy version 3.8.0 on 09/13/2024 at 10:23:27.
BEGIN OPTIONS
  AUXILIARY  iface
  BOUNDNAMES
  SAVE_FLOWS
  AUTO_FLOW_REDUCE  1.00000000E-06
END OPTIONS

BEGIN DIMENSIONS
  MAXBOUND  23
END DIMENSIONS

BEGIN PERIOD  1
  1 30 26 0.00000000E+00 0 's_107610'
  1 24 23 0.00000000E+00 0 's_117861'
  1 24 23 -7.97773710E+02 0 's_117454'
  1 19 34 -3.60507471E+03 0 's_118097'
  1 19 34 -4.60983835E+03 0 's_076772'
  1 18 40 0.00000000E+00 0 's_098991'
  1 17 41 -2.39332113E+03 0 's_125174'
  1 17 41 -2.10008539E+03 0 's_124937'
  1 17 40 0.00000000E+00 0 's_125108'
  1 17 40 0.00000000E+00 0 's_125107'
  1 17 41 -1.74647758E+03 0 's_125109'
  1 17 40 0.00000000E+00 0 's_015795'
  1 15 44 -2.05696248E+03 0 's_127502'
  1 15 45 -1.81116194E+03 0 's_115099'
  1 15 45 0.00000000E+00 0 's_108562'
  1 15 44 0.00000000E+00 0 's_131282'
  1 15 45 -1.81116194E+03 0 's_118355'
  1 13 41 0.00000000E+00 0 's_071873'
  1 13 42 0.00000000E+00 0 's_134405'
  1 13 42 0.00000000E+00 0 's_134404'
  1 14 45 -2.05696248E+03 0 's_125188'
  1 14 45 -2.06989936E+03 0 's_125231'
  1 18 40 0.00000000E+00 0 's_003697'
END PERIOD  1

BEGIN PERIOD  32
  1 30 26 0.00000000E+00 0 's_107610'
  1 24 23 0.00000000E+00 0 's_117861'
  1 24 23 -5.68144250E+02 0 's_117454'
  1 19 34 -3.90062061E+03 0 's_118097'
  1 19 34 -4.08681914E+03 0 's_076772'
  1 18 40 0.00000000E+00 0 's_098991'
  1 17 41 -1.49913693E+03 0 's_125174'
  1 17 41 -1.97656907E+03 0 's_124937'
  1 17 40 0.00000000E+00 0 's_125108'
  1 17 40 0.00000000E+00 0 's_125107'
  1 17 41 -1.83811375E+03 0 's_125109'
  1 17 40 0.00000000E+00 0 's_015795'
  1 15 44 -1.46094236E+03 0 's_127502'
  1 15 45 -9.73961571E+02 0 's_115099'
  1 15 45 0.00000000E+00 0 's_108562'
  1 15 44 0.00000000E+00 0 's_131282'
  1 15 45 -9.73961571E+02 0 's_118355'
  1 13 41 0.00000000E+00 0 's_071873'
  1 13 42 0.00000000E+00 0 's_134405'
  1 13 42 0.00000000E+00 0 's_134404'
  1 14 45 -1.44661939E+03 0 's_125188'
  1 14 45 -1.46094236E+03 0 's_125231'
  1 18 40 0.00000000E+00 0 's_003697'
END PERIOD  32

BEGIN PERIOD  60
  1 30 26 0.00000000E+00 0 's_107610'
  1 24 23 0.00000000E+00 0 's_117861'
  1 24 23 -8.88331806E+02 0 's_117454'
  1 19 34 -3.37221103E+03 0 's_118097'
  1 19 34 -4.17429703E+03 0 's_076772'
  1 18 40 0.00000000E+00 0 's_098991'
  1 17 41 -1.82841110E+03 0 's_125174'
  1 17 41 -1.78528819E+03 0 's_124937'
  1 17 40 0.00000000E+00 0 's_125108'
  1 17 40 0.00000000E+00 0 's_125107'
  1 17 41 -1.78528819E+03 0 's_125109'
  1 17 40 0.00000000E+00 0 's_015795'
  1 15 44 -1.14275694E+03 0 's_127502'
  1 15 45 -1.03063739E+03 0 's_115099'
  1 15 45 0.00000000E+00 0 's_108562'
  1 15 44 0.00000000E+00 0 's_131282'
  1 15 45 -1.04357426E+03 0 's_118355'
  1 13 41 0.00000000E+00 0 's_071873'
  1 13 42 0.00000000E+00 0 's_134405'
  1 13 42 0.00000000E+00 0 's_134404'
  1 14 45 -1.15569381E+03 0 's_125188'
  1 14 45 -1.15569381E+03 0 's_125231'
  1 18 40 0.00000000E+00 0 's_003697'
END PERIOD  60

BEGIN PERIOD  91
  1 30 26 -4.45603333E+01 0 's_107610'
  1 24 23 0.00000000E+00 0 's_117861'
  1 24 23 -1.18976090E+03 0 's_117454'
  1 19 34 -3.70741973E+03 0 's_118097'
  1 19 34 -4.19758340E+03 0 's_076772'
  1 18 40 -2.79393290E+03 0 's_098991'
  1 17 41 -2.31713733E+03 0 's_125174'
  1 17 41 -2.10324773E+03 0 's_124937'
  1 17 40 0.00000000E+00 0 's_125108'
  1 17 40 0.00000000E+00 0 's_125107'
  1 17 41 -2.13889600E+03 0 's_125109'
  1 17 40 0.00000000E+00 0 's_015795'
  1 15 44 -1.54624357E+03 0 's_127502'
  1 15 45 -1.43929877E+03 0 's_115099'
  1 15 45 0.00000000E+00 0 's_108562'
  1 15 44 0.00000000E+00 0 's_131282'
  1 15 45 -1.46603497E+03 0 's_118355'
  1 13 41 0.00000000E+00 0 's_071873'
  1 13 42 0.00000000E+00 0 's_134405'
  1 13 42 0.00000000E+00 0 's_134404'
  1 14 45 -1.55961167E+03 0 's_125188'
  1 14 45 -1.55961167E+03 0 's_125231'
  1 18 40 0.00000000E+00 0 's_003697'
END PERIOD  91

BEGIN PERIOD  121
  1 30 26 -8.62458065E+01 0 's_107610'
  1 24 23 0.00000000E+00 0 's_117861'
  1 24 23 -7.11527903E+02 0 's_117454'
  1 19 34 -6.39943884E+03 0 's_118097'
  1 19 34 -7.68881365E+03 0 's_076772'
  1 18 40 -5.40329977E+03 0 's_098991'
  1 17 41 -3.77756632E+03 0 's_125174'
  1 17 41 -4.64002439E+03 0 's_124937'
  1 17 40 -9.14205548E+02 0 's_125108'
  1 17 40 -9.14205548E+02 0 's_125107'
  1 17 41 -3.41102164E+03 0 's_125109'
  1 17 40 0.00000000E+00 0 's_015795'
  1 15 44 -2.22514181E+03 0 's_127502'
  1 15 45 -2.29845074E+03 0 's_115099'
  1 15 45 0.00000000E+00 0 's_108562'
  1 15 44 0.00000000E+00 0 's_131282'
  1 15 45 -2.27257700E+03 0 's_118355'
  1 13 41 0.00000000E+00 0 's_071873'
  1 13 42 0.00000000E+00 0 's_134405'
  1 13 42 0.00000000E+00 0 's_134404'
  1 14 45 -2.21220494E+03 0 's_125188'
  1 14 45 -2.23376639E+03 0 's_125231'
  1 18 40 0.00000000E+00 0 's_003697'
END PERIOD  121

BEGIN PERIOD  152
  1 30 26 -1.73785300E+02 0 's_107610'
  1 24 23 0.00000000E+00 0 's_117861'
  1 24 23 -7.17421367E+02 0 's_117454'
  1 19 34 -9.51363117E+03 0 's_118097'
  1 19 34 -1.03290853E+04 0 's_076772'
  1 18 40 -1.11668195E+04 0 's_098991'
  1 17 41 -1.02043163E+04 0 's_125174'
  1 17 41 -8.89424253E+03 0 's_124937'
  1 17 40 -2.97663027E+03 0 's_125108'
  1 17 40 -3.00782250E+03 0 's_125107'
  1 17 41 -8.50656763E+03 0 's_125109'
  1 17 40 0.00000000E+00 0 's_015795'
  1 15 44 -4.50950573E+03 0 's_127502'
  1 15 45 -3.54700253E+03 0 's_115099'
  1 15 45 0.00000000E+00 0 's_108562'
  1 15 44 0.00000000E+00 0 's_131282'
  1 15 45 -3.56037063E+03 0 's_118355'
  1 13 41 -5.92652433E+02 0 's_071873'
  1 13 42 0.00000000E+00 0 's_134405'
  1 13 42 0.00000000E+00 0 's_134404'
  1 14 45 -4.50950573E+03 0 's_125188'
  1 14 45 -4.50950573E+03 0 's_125231'
  1 18 40 0.00000000E+00 0 's_003697'
END PERIOD  152

BEGIN PERIOD  182
  1 30 26 -2.11302226E+02 0 's_107610'
  1 24 23 0.00000000E+00 0 's_117861'
  1 24 23 -1.97934126E+03 0 's_117454'
  1 19 34 -1.10265264E+04 0 's_118097'
  1 19 34 -1.24064593E+04 0 's_076772'
  1 18 40 -1.35104056E+04 0 's_098991'
  1 17 41 -1.23245257E+04 0 's_125174'
  1 17 41 -9.15499236E+03 0 's_124937'
  1 17 40 -4.83407745E+03 0 's_125108'
  1 17 40 -4.86426348E+03 0 's_125107'
  1 17 41 -8.97387616E+03 0 's_125109'
  1 17 40 0.00000000E+00 0 's_015795'
  1 15 44 -4.07080206E+03 0 's_127502'
  1 15 45 -2.94960658E+03 0 's_115099'
  1 15 45 0.00000000E+00 0 's_108562'
  1 15 44 0.00000000E+00 0 's_131282'
  1 15 45 -3.45845684E+03 0 's_118355'
  1 13 41 -4.54084171E+03 0 's_071873'
  1 13 42 0.00000000E+00 0 's_134405'
  1 13 42 0.00000000E+00 0 's_134404'
  1 14 45 -4.59690148E+03 0 's_125188'
  1 14 45 -4.56240316E+03 0 's_125231'
  1 18 40 0.00000000E+00 0 's_003697'
END PERIOD  182

BEGIN PERIOD  213
  1 30 26 -2.11302226E+02 0 's_107610'
  1 24 23 0.00000000E+00 0 's_117861'
  1 24 23 -1.94484293E+03 0 's_117454'
  1 19 34 -7.73624884E+03 0 's_118097'
  1 19 34 -8.35290635E+03 0 's_076772'
  1 18 40 -1.35104056E+04 0 's_098991'
  1 17 41 -1.07936627E+04 0 's_125174'
  1 17 41 -8.43483987E+03 0 's_124937'
  1 17 40 -3.44983226E+03 0 's_125108'
  1 17 40 -3.50589203E+03 0 's_125107'
  1 17 41 -8.43483987E+03 0 's_125109'
  1 17 40 0.00000000E+00 0 's_015795'
  1 15 44 -2.49250381E+03 0 's_127502'
  1 15 45 -2.41488258E+03 0 's_115099'
  1 15 45 0.00000000E+00 0 's_108562'
  1 15 44 0.00000000E+00 0 's_131282'
  1 15 45 -3.08328758E+03 0 's_118355'
  1 13 41 -6.11482768E+03 0 's_071873'
  1 13 42 0.00000000E+00 0 's_134405'
  1 13 42 0.00000000E+00 0 's_134404'
  1 14 45 -4.53221713E+03 0 's_125188'
  1 14 45 -4.54084171E+03 0 's_125231'
  1 18 40 0.00000000E+00 0 's_003697'
END PERIOD  213

BEGIN PERIOD  244
  1 30 26 -8.91206667E+01 0 's_107610'
  1 24 23 0.00000000E+00 0 's_117861'
  1 24 23 -1.20758503E+03 0 's_117454'
  1 19 34 -7.87381090E+03 0 's_118097'
  1 19 34 -7.95401950E+03 0 's_076772'
  1 18 40 -5.58340977E+03 0 's_098991'
  1 17 41 -7.42375153E+03 0 's_125174'
  1 17 41 -6.58601727E+03 0 's_124937'
  1 17 40 -1.84479780E+03 0 's_125108'
  1 17 40 -1.84479780E+03 0 's_125107'
  1 17 41 -5.80175540E+03 0 's_125109'
  1 17 40 0.00000000E+00 0 's_015795'
  1 15 44 -2.91424580E+03 0 's_127502'
  1 15 45 -2.92761390E+03 0 's_115099'
  1 15 45 0.00000000E+00 0 's_108562'
  1 15 44 0.00000000E+00 0 's_131282'
  1 15 45 -2.92761390E+03 0 's_118355'
  1 13 41 -6.66622587E+03 0 's_071873'
  1 13 42 0.00000000E+00 0 's_134405'
  1 13 42 0.00000000E+00 0 's_134404'
  1 14 45 -4.10846273E+03 0 's_125188'
  1 14 45 -4.09509463E+03 0 's_125231'
  1 18 40 0.00000000E+00 0 's_003697'
END PERIOD  244

BEGIN PERIOD  274
  1 30 26 -4.31229032E+01 0 's_107610'
  1 24 23 0.00000000E+00 0 's_117861'
  1 24 23 -1.52223848E+03 0 's_117454'
  1 19 34 -6.05445561E+03 0 's_118097'
  1 19 34 -6.09326623E+03 0 's_076772'
  1 18 40 -2.70380603E+03 0 's_098991'
  1 17 41 -6.42962487E+03 0 's_125174'
  1 17 41 -5.19630984E+03 0 's_124937'
  1 17 40 -8.66770355E+02 0 's_125108'
  1 17 40 -8.66770355E+02 0 's_125107'
  1 17 41 -4.84270203E+03 0 's_125109'
  1 17 40 0.00000000E+00 0 's_015795'
  1 15 44 -2.71243061E+03 0 's_127502'
  1 15 45 -2.71243061E+03 0 's_115099'
  1 15 45 0.00000000E+00 0 's_108562'
  1 15 44 0.00000000E+00 0 's_131282'
  1 15 45 -2.71243061E+03 0 's_118355'
  1 13 41 -4.34247635E+03 0 's_071873'
  1 13 42 0.00000000E+00 0 's_134405'
  1 13 42 0.00000000E+00 0 's_134404'
  1 14 45 -2.41488258E+03 0 's_125188'
  1 14 45 -2.42781945E+03 0 's_125231'
  1 18 40 0.00000000E+00 0 's_003697'
END PERIOD  274

BEGIN PERIOD  305
  1 30 26 0.00000000E+00 0 's_107610'
  1 24 23 0.00000000E+00 0 's_117861'
  1 24 23 -7.04053267E+02 0 's_117454'
  1 19 34 -4.44712127E+03 0 's_118097'
  1 19 34 -3.70741973E+03 0 's_076772'
  1 18 40 0.00000000E+00 0 's_098991'
  1 17 41 -5.29822363E+03 0 's_125174'
  1 17 41 -3.06575093E+03 0 's_124937'
  1 17 40 -4.05499033E+02 0 's_125108'
  1 17 40 -3.69850767E+02 0 's_125107'
  1 17 41 -3.94358950E+03 0 's_125109'
  1 17 40 0.00000000E+00 0 's_015795'
  1 15 44 -1.72002887E+03 0 's_127502'
  1 15 45 -1.73339697E+03 0 's_115099'
  1 15 45 0.00000000E+00 0 's_108562'
  1 15 44 0.00000000E+00 0 's_131282'
  1 15 45 -1.74676507E+03 0 's_118355'
  1 13 41 -4.13074290E+03 0 's_071873'
  1 13 42 0.00000000E+00 0 's_134405'
  1 13 42 0.00000000E+00 0 's_134404'
  1 14 45 -1.91163830E+03 0 's_125188'
  1 14 45 -1.92500640E+03 0 's_125231'
  1 18 40 0.00000000E+00 0 's_003697'
END PERIOD  305

BEGIN PERIOD  335
  1 30 26 0.00000000E+00 0 's_107610'
  1 24 23 0.00000000E+00 0 's_117861'
  1 24 23 -4.44165903E+02 0 's_117454'
  1 19 34 -2.99272948E+03 0 's_118097'
  1 19 34 -1.93621835E+03 0 's_076772'
  1 18 40 0.00000000E+00 0 's_098991'
  1 17 41 -4.76939310E+03 0 's_125174'
  1 17 41 -4.76508081E+03 0 's_124937'
  1 17 40 0.00000000E+00 0 's_125108'
  1 17 40 0.00000000E+00 0 's_125107'
  1 17 41 -3.53607807E+03 0 's_125109'
  1 17 40 0.00000000E+00 0 's_015795'
  1 15 44 -8.27959742E+02 0 's_127502'
  1 15 45 -8.27959742E+02 0 's_115099'
  1 15 45 0.00000000E+00 0 's_108562'
  1 15 44 0.00000000E+00 0 's_131282'
  1 15 45 -1.08669716E+03 0 's_118355'
  1 13 41 -4.45459590E+03 0 's_071873'
  1 13 42 0.00000000E+00 0 's_134405'
  1 13 42 0.00000000E+00 0 's_134404'
  1 14 45 -1.86290942E+03 0 's_125188'
  1 14 45 -1.86290942E+03 0 's_125231'
  1 18 40 0.00000000E+00 0 's_003697'
END PERIOD  335

