# File generated by Flopy version 3.8.0 on 09/13/2024 at 10:23:27.
BEGIN OPTIONS
  AUXILIARY  iface
  BOUNDNAMES
  SAVE_FLOWS
END OPTIONS

BEGIN DIMENSIONS
  MAXBOUND  735
END DIMENSIONS

BEGIN PERIOD  1
  1 27 1 0.00000000E+00 2.50000000E+04 0 'sound'
  1 28 1 0.00000000E+00 2.50000000E+04 0 'sound'
  1 29 1 0.00000000E+00 2.50000000E+04 0 'sound'
  1 30 1 0.00000000E+00 2.42319567E+04 0 'sound'
  1 26 2 0.00000000E+00 2.50000000E+04 0 'sound'
  1 27 2 0.00000000E+00 2.50000000E+04 0 'sound'
  1 28 2 0.00000000E+00 2.50000000E+04 0 'sound'
  1 29 2 0.00000000E+00 2.50000000E+04 0 'sound'
  1 30 2 0.00000000E+00 1.31136632E+04 0 'sound'
  1 26 3 0.00000000E+00 2.50000000E+04 0 'sound'
  1 27 3 0.00000000E+00 2.50000000E+04 0 'sound'
  1 28 3 0.00000000E+00 2.50000000E+04 0 'sound'
  1 29 3 0.00000000E+00 2.50000000E+04 0 'sound'
  1 27 4 0.00000000E+00 2.50000000E+04 0 'sound'
  1 28 4 0.00000000E+00 2.50000000E+04 0 'sound'
  1 29 4 0.00000000E+00 2.50000000E+04 0 'sound'
  1 30 4 0.00000000E+00 1.71358778E+04 0 'sound'
  1 26 5 0.00000000E+00 2.50000000E+04 0 'sound'
  1 27 5 0.00000000E+00 2.50000000E+04 0 'sound'
  1 28 5 0.00000000E+00 2.50000000E+04 0 'sound'
  1 29 5 0.00000000E+00 2.50000000E+04 0 'sound'
  1 30 5 0.00000000E+00 1.82645624E+04 0 'sound'
  1 26 6 0.00000000E+00 2.50000000E+04 0 'sound'
  1 27 6 0.00000000E+00 2.50000000E+04 0 'sound'
  1 28 6 0.00000000E+00 2.50000000E+04 0 'sound'
  1 29 6 0.00000000E+00 2.50000000E+04 0 'sound'
  1 26 7 0.00000000E+00 2.50000000E+04 0 'sound'
  1 27 7 0.00000000E+00 2.50000000E+04 0 'sound'
  1 28 7 0.00000000E+00 2.50000000E+04 0 'sound'
  1 29 7 0.00000000E+00 1.92276467E+04 0 'sound'
  1 26 8 0.00000000E+00 2.50000000E+04 0 'sound'
  1 27 8 0.00000000E+00 2.50000000E+04 0 'sound'
  1 28 8 0.00000000E+00 2.50000000E+04 0 'sound'
  1 26 9 0.00000000E+00 2.50000000E+04 0 'sound'
  1 27 9 0.00000000E+00 2.50000000E+04 0 'sound'
  1 28 9 0.00000000E+00 2.50000000E+04 0 'sound'
  1 29 9 0.00000000E+00 1.73460707E+04 0 'sound'
  1 25 10 0.00000000E+00 2.50000000E+04 0 'sound'
  1 26 10 0.00000000E+00 2.50000000E+04 0 'sound'
  1 27 10 0.00000000E+00 2.50000000E+04 0 'sound'
  1 28 10 0.00000000E+00 2.50000000E+04 0 'sound'
  1 29 10 0.00000000E+00 1.77072783E+04 0 'sound'
  1 25 11 0.00000000E+00 2.50000000E+04 0 'sound'
  1 26 11 0.00000000E+00 2.50000000E+04 0 'sound'
  1 27 11 0.00000000E+00 2.50000000E+04 0 'sound'
  1 28 11 0.00000000E+00 2.50000000E+04 0 'sound'
  1 24 12 0.00000000E+00 2.50000000E+04 0 'sound'
  1 25 12 0.00000000E+00 2.50000000E+04 0 'sound'
  1 26 12 0.00000000E+00 2.50000000E+04 0 'sound'
  1 27 12 0.00000000E+00 2.50000000E+04 0 'sound'
  1 28 12 0.00000000E+00 2.40059205E+04 0 'sound'
  1 23 13 0.00000000E+00 2.50000000E+04 0 'sound'
  1 24 13 0.00000000E+00 2.50000000E+04 0 'sound'
  1 25 13 0.00000000E+00 2.50000000E+04 0 'sound'
  1 26 13 0.00000000E+00 2.50000000E+04 0 'sound'
  1 27 13 0.00000000E+00 2.50000000E+04 0 'sound'
  1 21 14 0.00000000E+00 2.50000000E+04 0 'sound'
  1 22 14 0.00000000E+00 2.50000000E+04 0 'sound'
  1 23 14 0.00000000E+00 2.50000000E+04 0 'sound'
  1 24 14 0.00000000E+00 2.50000000E+04 0 'sound'
  1 25 14 0.00000000E+00 2.50000000E+04 0 'sound'
  1 26 14 0.00000000E+00 2.50000000E+04 0 'sound'
  1 27 14 0.00000000E+00 2.25253953E+04 0 'sound'
  1 19 15 0.00000000E+00 2.50000000E+04 0 'sound'
  1 20 15 0.00000000E+00 2.50000000E+04 0 'sound'
  1 21 15 0.00000000E+00 2.50000000E+04 0 'sound'
  1 22 15 0.00000000E+00 2.50000000E+04 0 'sound'
  1 23 15 0.00000000E+00 2.50000000E+04 0 'sound'
  1 24 15 0.00000000E+00 2.50000000E+04 0 'sound'
  1 25 15 0.00000000E+00 2.50000000E+04 0 'sound'
  1 26 15 0.00000000E+00 2.31427656E+04 0 'sound'
  1 19 16 0.00000000E+00 2.50000000E+04 0 'sound'
  1 20 16 0.00000000E+00 2.50000000E+04 0 'sound'
  1 21 16 0.00000000E+00 2.50000000E+04 0 'sound'
  1 22 16 0.00000000E+00 2.50000000E+04 0 'sound'
  1 23 16 0.00000000E+00 2.50000000E+04 0 'sound'
  1 24 16 0.00000000E+00 2.50000000E+04 0 'sound'
  1 25 16 0.00000000E+00 2.49850913E+04 0 'sound'
  1 19 17 0.00000000E+00 2.50000000E+04 0 'sound'
  1 20 17 0.00000000E+00 2.50000000E+04 0 'sound'
  1 21 17 0.00000000E+00 2.50000000E+04 0 'sound'
  1 22 17 0.00000000E+00 2.50000000E+04 0 'sound'
  1 23 17 0.00000000E+00 2.50000000E+04 0 'sound'
  1 24 17 0.00000000E+00 2.50000000E+04 0 'sound'
  1 25 17 0.00000000E+00 1.33182479E+04 0 'sound'
  1 18 18 0.00000000E+00 2.50000000E+04 0 'sound'
  1 19 18 0.00000000E+00 2.50000000E+04 0 'sound'
  1 20 18 0.00000000E+00 2.50000000E+04 0 'sound'
  1 21 18 0.00000000E+00 2.50000000E+04 0 'sound'
  1 22 18 0.00000000E+00 2.50000000E+04 0 'sound'
  1 23 18 0.00000000E+00 2.50000000E+04 0 'sound'
  1 24 18 0.00000000E+00 1.68339724E+04 0 'sound'
  1 16 19 0.00000000E+00 2.50000000E+04 0 'sound'
  1 17 19 0.00000000E+00 2.50000000E+04 0 'sound'
  1 18 19 0.00000000E+00 2.50000000E+04 0 'sound'
  1 19 19 0.00000000E+00 2.50000000E+04 0 'sound'
  1 20 19 0.00000000E+00 2.50000000E+04 0 'sound'
  1 21 19 0.00000000E+00 2.50000000E+04 0 'sound'
  1 22 19 0.00000000E+00 2.35461886E+04 0 'sound'
  1 16 20 0.00000000E+00 2.50000000E+04 0 'sound'
  1 17 20 0.00000000E+00 2.50000000E+04 0 'sound'
  1 18 20 0.00000000E+00 2.50000000E+04 0 'sound'
  1 19 20 0.00000000E+00 2.50000000E+04 0 'sound'
  1 20 20 0.00000000E+00 2.50000000E+04 0 'sound'
  1 21 20 0.00000000E+00 2.41973406E+04 0 'sound'
  1 15 21 0.00000000E+00 2.50000000E+04 0 'sound'
  1 16 21 0.00000000E+00 2.50000000E+04 0 'sound'
  1 17 21 0.00000000E+00 2.50000000E+04 0 'sound'
  1 18 21 0.00000000E+00 2.50000000E+04 0 'sound'
  1 19 21 0.00000000E+00 2.50000000E+04 0 'sound'
  1 20 21 0.00000000E+00 2.01353835E+04 0 'sound'
  1 15 22 0.00000000E+00 2.50000000E+04 0 'sound'
  1 16 22 0.00000000E+00 2.50000000E+04 0 'sound'
  1 17 22 0.00000000E+00 2.50000000E+04 0 'sound'
  1 18 22 0.00000000E+00 2.48739453E+04 0 'sound'
  1 14 23 0.00000000E+00 2.50000000E+04 0 'sound'
  1 15 23 0.00000000E+00 2.50000000E+04 0 'sound'
  1 16 23 0.00000000E+00 2.50000000E+04 0 'sound'
  1 17 23 0.00000000E+00 2.50000000E+04 0 'sound'
  1 18 23 0.00000000E+00 2.17564370E+04 0 'sound'
  1 14 24 0.00000000E+00 2.50000000E+04 0 'sound'
  1 15 24 0.00000000E+00 2.50000000E+04 0 'sound'
  1 16 24 0.00000000E+00 2.50000000E+04 0 'sound'
  1 17 24 0.00000000E+00 2.50000000E+04 0 'sound'
  1 14 25 0.00000000E+00 2.50000000E+04 0 'sound'
  1 15 25 0.00000000E+00 2.50000000E+04 0 'sound'
  1 16 25 0.00000000E+00 2.50000000E+04 0 'sound'
  1 17 25 0.00000000E+00 2.50000000E+04 0 'sound'
  1 13 26 0.00000000E+00 2.50000000E+04 0 'sound'
  1 14 26 0.00000000E+00 2.50000000E+04 0 'sound'
  1 15 26 0.00000000E+00 2.50000000E+04 0 'sound'
  1 16 26 0.00000000E+00 2.50000000E+04 0 'sound'
  1 17 26 0.00000000E+00 1.63906885E+04 0 'sound'
  1 13 27 0.00000000E+00 2.50000000E+04 0 'sound'
  1 14 27 0.00000000E+00 2.50000000E+04 0 'sound'
  1 15 27 0.00000000E+00 2.50000000E+04 0 'sound'
  1 16 27 0.00000000E+00 2.50000000E+04 0 'sound'
  1 13 28 0.00000000E+00 2.50000000E+04 0 'sound'
  1 14 28 0.00000000E+00 2.50000000E+04 0 'sound'
  1 15 28 0.00000000E+00 2.50000000E+04 0 'sound'
  1 16 28 0.00000000E+00 2.50000000E+04 0 'sound'
  1 17 28 0.00000000E+00 1.38057896E+04 0 'sound'
  1 13 29 0.00000000E+00 2.50000000E+04 0 'sound'
  1 14 29 0.00000000E+00 2.50000000E+04 0 'sound'
  1 15 29 0.00000000E+00 2.50000000E+04 0 'sound'
  1 16 29 0.00000000E+00 2.50000000E+04 0 'sound'
  1 17 29 0.00000000E+00 1.22156842E+04 0 'sound'
  1 13 30 0.00000000E+00 2.50000000E+04 0 'sound'
  1 14 30 0.00000000E+00 2.50000000E+04 0 'sound'
  1 15 30 0.00000000E+00 2.50000000E+04 0 'sound'
  1 16 30 0.00000000E+00 2.39692066E+04 0 'sound'
  1 12 31 0.00000000E+00 2.50000000E+04 0 'sound'
  1 13 31 0.00000000E+00 2.50000000E+04 0 'sound'
  1 14 31 0.00000000E+00 2.50000000E+04 0 'sound'
  1 15 31 0.00000000E+00 2.50000000E+04 0 'sound'
  1 16 31 0.00000000E+00 1.69251798E+04 0 'sound'
  1 12 32 0.00000000E+00 2.50000000E+04 0 'sound'
  1 13 32 0.00000000E+00 2.50000000E+04 0 'sound'
  1 14 32 0.00000000E+00 2.50000000E+04 0 'sound'
  1 15 32 0.00000000E+00 2.46194761E+04 0 'sound'
  1 11 33 0.00000000E+00 2.50000000E+04 0 'sound'
  1 12 33 0.00000000E+00 2.50000000E+04 0 'sound'
  1 13 33 0.00000000E+00 2.50000000E+04 0 'sound'
  1 14 33 0.00000000E+00 2.50000000E+04 0 'sound'
  1 10 34 0.00000000E+00 2.50000000E+04 0 'sound'
  1 11 34 0.00000000E+00 2.50000000E+04 0 'sound'
  1 12 34 0.00000000E+00 2.50000000E+04 0 'sound'
  1 13 34 0.00000000E+00 2.50000000E+04 0 'sound'
  1 14 34 0.00000000E+00 2.50000000E+04 0 'sound'
  1 9 35 0.00000000E+00 2.50000000E+04 0 'sound'
  1 10 35 0.00000000E+00 2.50000000E+04 0 'sound'
  1 11 35 0.00000000E+00 2.50000000E+04 0 'sound'
  1 12 35 0.00000000E+00 2.50000000E+04 0 'sound'
  1 13 35 0.00000000E+00 2.50000000E+04 0 'sound'
  1 14 35 0.00000000E+00 2.02789065E+04 0 'sound'
  1 8 36 0.00000000E+00 2.50000000E+04 0 'sound'
  1 9 36 0.00000000E+00 2.50000000E+04 0 'sound'
  1 10 36 0.00000000E+00 2.50000000E+04 0 'sound'
  1 11 36 0.00000000E+00 2.50000000E+04 0 'sound'
  1 12 36 0.00000000E+00 2.50000000E+04 0 'sound'
  1 13 36 0.00000000E+00 2.05138633E+04 0 'sound'
  1 7 37 0.00000000E+00 2.50000000E+04 0 'sound'
  1 8 37 0.00000000E+00 2.50000000E+04 0 'sound'
  1 9 37 0.00000000E+00 2.50000000E+04 0 'sound'
  1 10 37 0.00000000E+00 2.50000000E+04 0 'sound'
  1 11 37 0.00000000E+00 2.50000000E+04 0 'sound'
  1 12 37 0.00000000E+00 1.72221496E+04 0 'sound'
  1 6 38 0.00000000E+00 2.50000000E+04 0 'sound'
  1 7 38 0.00000000E+00 2.50000000E+04 0 'sound'
  1 8 38 0.00000000E+00 2.50000000E+04 0 'sound'
  1 9 38 0.00000000E+00 2.50000000E+04 0 'sound'
  1 10 38 0.00000000E+00 2.50000000E+04 0 'sound'
  1 11 38 0.00000000E+00 2.07433189E+04 0 'sound'
  1 4 39 0.00000000E+00 2.50000000E+04 0 'sound'
  1 5 39 0.00000000E+00 2.50000000E+04 0 'sound'
  1 6 39 0.00000000E+00 2.50000000E+04 0 'sound'
  1 7 39 0.00000000E+00 2.50000000E+04 0 'sound'
  1 8 39 0.00000000E+00 2.50000000E+04 0 'sound'
  1 9 39 0.00000000E+00 2.50000000E+04 0 'sound'
  1 10 39 0.00000000E+00 2.48127777E+04 0 'sound'
  1 3 40 0.00000000E+00 2.50000000E+04 0 'sound'
  1 4 40 0.00000000E+00 2.50000000E+04 0 'sound'
  1 5 40 0.00000000E+00 2.50000000E+04 0 'sound'
  1 6 40 0.00000000E+00 2.50000000E+04 0 'sound'
  1 7 40 0.00000000E+00 2.50000000E+04 0 'sound'
  1 8 40 0.00000000E+00 2.50000000E+04 0 'sound'
  1 9 40 0.00000000E+00 2.29112079E+04 0 'sound'
  1 3 41 0.00000000E+00 2.50000000E+04 0 'sound'
  1 4 41 0.00000000E+00 2.50000000E+04 0 'sound'
  1 5 41 0.00000000E+00 2.50000000E+04 0 'sound'
  1 6 41 0.00000000E+00 2.50000000E+04 0 'sound'
  1 7 41 0.00000000E+00 2.39011826E+04 0 'sound'
  1 8 41 0.00000000E+00 1.28753514E+04 0 'sound'
  1 2 42 0.00000000E+00 2.50000000E+04 0 'sound'
  1 3 42 0.00000000E+00 2.50000000E+04 0 'sound'
  1 4 42 0.00000000E+00 2.50000000E+04 0 'sound'
  1 5 42 0.00000000E+00 2.50000000E+04 0 'sound'
  1 6 42 0.00000000E+00 1.68882798E+04 0 'sound'
  1 2 43 0.00000000E+00 2.50000000E+04 0 'sound'
  1 3 43 0.00000000E+00 2.50000000E+04 0 'sound'
  1 4 43 0.00000000E+00 2.50000000E+04 0 'sound'
  1 5 43 0.00000000E+00 2.50000000E+04 0 'sound'
  1 2 44 0.00000000E+00 2.50000000E+04 0 'sound'
  1 3 44 0.00000000E+00 2.50000000E+04 0 'sound'
  1 4 44 0.00000000E+00 2.50000000E+04 0 'sound'
  1 5 44 0.00000000E+00 2.50000000E+04 0 'sound'
  1 2 45 0.00000000E+00 2.50000000E+04 0 'sound'
  1 3 45 0.00000000E+00 2.50000000E+04 0 'sound'
  1 4 45 0.00000000E+00 2.50000000E+04 0 'sound'
  1 5 45 0.00000000E+00 2.50000000E+04 0 'sound'
  1 2 46 0.00000000E+00 2.50000000E+04 0 'sound'
  1 3 46 0.00000000E+00 2.50000000E+04 0 'sound'
  1 4 46 0.00000000E+00 2.50000000E+04 0 'sound'
  1 5 46 0.00000000E+00 2.50000000E+04 0 'sound'
  1 6 46 0.00000000E+00 1.76891857E+04 0 'sound'
  1 3 47 0.00000000E+00 2.50000000E+04 0 'sound'
  1 4 47 0.00000000E+00 2.50000000E+04 0 'sound'
  1 5 47 0.00000000E+00 2.50000000E+04 0 'sound'
  1 6 47 0.00000000E+00 2.23018126E+04 0 'sound'
  1 3 48 0.00000000E+00 2.50000000E+04 0 'sound'
  1 4 48 0.00000000E+00 2.50000000E+04 0 'sound'
  1 5 48 0.00000000E+00 2.50000000E+04 0 'sound'
  1 6 48 0.00000000E+00 2.50000000E+04 0 'sound'
  1 7 48 0.00000000E+00 1.45421339E+04 0 'sound'
  1 4 49 0.00000000E+00 2.50000000E+04 0 'sound'
  1 5 49 0.00000000E+00 2.50000000E+04 0 'sound'
  1 6 49 0.00000000E+00 2.50000000E+04 0 'sound'
  1 4 50 0.00000000E+00 2.50000000E+04 0 'sound'
  1 5 50 0.00000000E+00 2.50000000E+04 0 'sound'
  1 6 50 0.00000000E+00 2.50000000E+04 0 'sound'
  1 4 51 0.00000000E+00 2.50000000E+04 0 'sound'
  1 5 51 0.00000000E+00 2.50000000E+04 0 'sound'
  1 6 51 0.00000000E+00 2.50000000E+04 0 'sound'
  1 7 51 0.00000000E+00 2.27282439E+04 0 'sound'
  1 8 51 0.00000000E+00 1.43387298E+04 0 'sound'
  1 4 52 0.00000000E+00 2.50000000E+04 0 'sound'
  1 5 52 0.00000000E+00 2.50000000E+04 0 'sound'
  1 6 52 0.00000000E+00 2.50000000E+04 0 'sound'
  1 7 52 0.00000000E+00 2.50000000E+04 0 'sound'
  1 8 52 0.00000000E+00 2.50000000E+04 0 'sound'
  1 9 52 0.00000000E+00 2.20197738E+04 0 'sound'
  1 5 53 0.00000000E+00 2.50000000E+04 0 'sound'
  1 6 53 0.00000000E+00 2.50000000E+04 0 'sound'
  1 7 53 0.00000000E+00 2.50000000E+04 0 'sound'
  1 8 53 0.00000000E+00 2.50000000E+04 0 'sound'
  1 9 53 0.00000000E+00 2.50000000E+04 0 'sound'
  1 10 53 0.00000000E+00 1.31945743E+04 0 'sound'
  1 6 54 0.00000000E+00 2.50000000E+04 0 'sound'
  1 7 54 0.00000000E+00 2.50000000E+04 0 'sound'
  1 8 54 0.00000000E+00 2.50000000E+04 0 'sound'
  1 9 54 0.00000000E+00 2.50000000E+04 0 'sound'
  1 10 54 0.00000000E+00 2.47367253E+04 0 'sound'
  1 7 55 0.00000000E+00 2.50000000E+04 0 'sound'
  1 8 55 0.00000000E+00 2.50000000E+04 0 'sound'
  1 9 55 0.00000000E+00 2.50000000E+04 0 'sound'
  1 10 55 0.00000000E+00 2.50000000E+04 0 'sound'
  1 11 55 0.00000000E+00 1.38706468E+04 0 'sound'
  1 8 56 0.00000000E+00 2.50000000E+04 0 'sound'
  1 9 56 0.00000000E+00 2.50000000E+04 0 'sound'
  1 10 56 0.00000000E+00 2.50000000E+04 0 'sound'
  1 11 56 0.00000000E+00 1.88690107E+04 0 'sound'
  1 8 57 0.00000000E+00 2.48446789E+04 0 'sound'
  1 9 57 0.00000000E+00 2.47814216E+04 0 'sound'
  1 10 57 0.00000000E+00 2.47181642E+04 0 'sound'
  1 11 57 0.00000000E+00 2.18971014E+04 0 'sound'
  1 19 22 0.00000000E+00 7.13994330E+03 0 'sound'
  1 33 1 0.00000000E+00 2.49705511E+04 0 'inner'
  1 34 1 0.00000000E+00 2.45775587E+04 0 'inner'
  1 33 2 0.00000000E+00 2.46230168E+04 0 'inner'
  1 34 2 0.00000000E+00 2.50000000E+04 0 'inner'
  1 35 2 0.00000000E+00 2.49903847E+04 0 'inner'
  1 34 3 0.00000000E+00 2.45907213E+04 0 'inner'
  1 35 3 0.00000000E+00 2.50000000E+04 0 'inner'
  1 36 3 0.00000000E+00 1.98435208E+04 0 'inner'
  1 35 4 0.00000000E+00 2.35296012E+04 0 'inner'
  1 36 4 0.00000000E+00 2.50000000E+04 0 'inner'
  1 37 4 0.00000000E+00 2.49797623E+04 0 'inner'
  1 36 5 0.00000000E+00 1.75756802E+04 0 'inner'
  1 37 5 0.00000000E+00 2.50000000E+04 0 'inner'
  1 38 5 0.00000000E+00 2.50000000E+04 0 'inner'
  1 39 5 0.00000000E+00 1.90497858E+04 0 'inner'
  1 38 6 0.00000000E+00 2.42626478E+04 0 'inner'
  1 39 6 0.00000000E+00 2.50000000E+04 0 'inner'
  1 40 6 0.00000000E+00 2.12046902E+04 0 'inner'
  1 42 6 0.00000000E+00 1.91131907E+04 0 'inner'
  1 43 6 0.00000000E+00 1.16393307E+04 0 'inner'
  1 39 7 0.00000000E+00 2.27255695E+04 0 'inner'
  1 42 7 0.00000000E+00 1.20110224E+04 0 'inner'
  1 39 9 0.00000000E+00 1.02462413E+04 0 'inner'
  1 40 9 0.00000000E+00 1.15756933E+04 0 'inner'
  1 40 11 0.00000000E+00 9.93188904E+03 0 'inner'
  1 41 12 0.00000000E+00 2.28280205E+04 0 'inner'
  1 42 12 0.00000000E+00 1.86778819E+04 0 'inner'
  1 38 14 0.00000000E+00 9.18935214E+03 0 'inner'
  1 38 15 0.00000000E+00 1.47652887E+04 0 'inner'
  1 36 16 0.00000000E+00 8.34503719E+03 0 'inner'
  1 45 17 0.00000000E+00 1.58691062E+04 0 'inner'
  1 45 18 0.00000000E+00 1.72641501E+04 0 'inner'
  1 20 22 0.00000000E+00 7.58795002E+03 0 'inner'
  1 21 22 0.00000000E+00 1.20455956E+04 0 'inner'
  1 24 33 0.00000000E+00 1.11806441E+04 0 'inner'
  1 26 33 0.00000000E+00 2.13403972E+04 0 'inner'
  1 24 34 0.00000000E+00 1.27861921E+04 0 'inner'
  1 25 34 0.00000000E+00 1.54843041E+04 0 'inner'
  1 26 34 0.00000000E+00 1.69211373E+04 0 'inner'
  1 27 34 0.00000000E+00 2.50000000E+04 0 'inner'
  1 28 34 0.00000000E+00 1.11665182E+04 0 'inner'
  1 27 35 0.00000000E+00 2.49475494E+04 0 'inner'
  1 28 36 0.00000000E+00 1.20311696E+04 0 'inner'
  1 23 39 0.00000000E+00 6.96282416E+03 0 'inner'
  1 24 39 0.00000000E+00 1.31413592E+04 0 'inner'
  1 25 39 0.00000000E+00 1.65368921E+04 0 'inner'
  1 26 39 0.00000000E+00 1.75143458E+04 0 'inner'
  1 23 46 0.00000000E+00 1.46792384E+04 0 'inner'
  1 23 47 0.00000000E+00 1.08901750E+04 0 'inner'
  1 14 53 0.00000000E+00 1.12501052E+04 0 'inner'
  1 13 54 0.00000000E+00 1.19770338E+04 0 'inner'
  1 15 54 0.00000000E+00 1.73798451E+04 0 'inner'
  1 12 55 0.00000000E+00 2.25700899E+04 0 'inner'
  1 13 55 0.00000000E+00 2.46793178E+04 0 'inner'
  1 14 55 0.00000000E+00 2.04771823E+04 0 'inner'
  1 15 55 0.00000000E+00 2.18008419E+04 0 'inner'
  1 12 56 0.00000000E+00 1.79967427E+04 0 'inner'
  1 12 57 0.00000000E+00 1.42101466E+04 0 'inner'
  1 32 1 0.00000000E+00 1.06834634E+04 0 'inner'
  1 33 3 0.00000000E+00 9.16906281E+03 0 'inner'
  1 34 4 0.00000000E+00 9.17667153E+03 0 'inner'
  1 37 6 0.00000000E+00 1.04358459E+04 0 'inner'
  1 38 7 0.00000000E+00 1.32605636E+04 0 'inner'
  1 39 8 0.00000000E+00 6.74963928E+03 0 'inner'
  1 40 7 0.00000000E+00 7.93018963E+03 0 'inner'
  1 41 7 0.00000000E+00 4.33022234E+03 0 'inner'
  1 43 7 0.00000000E+00 2.38773278E+03 0 'inner'
  1 11 54 0.00000000E+00 3.53034725E+03 0 'inner'
  1 12 54 0.00000000E+00 1.61155266E+04 0 'inner'
  1 22 45 0.00000000E+00 1.84586058E+03 0 'inner'
  1 24 47 0.00000000E+00 2.57218473E+03 0 'inner'
  1 25 38 0.00000000E+00 5.92214627E+03 0 'inner'
  1 23 38 0.00000000E+00 5.04504857E+03 0 'inner'
  1 22 38 0.00000000E+00 4.77346400E+03 0 'inner'
  1 21 37 0.00000000E+00 3.24726810E+03 0 'inner'
  1 22 39 0.00000000E+00 3.82090342E+03 0 'inner'
  1 27 33 0.00000000E+00 9.81521080E+03 0 'inner'
  1 23 33 0.00000000E+00 4.05194294E+03 0 'inner'
  1 26 35 0.00000000E+00 5.55763165E+03 0 'inner'
  1 27 36 0.00000000E+00 3.00644337E+03 0 'inner'
  1 34 29 0.00000000E+00 6.97837859E+03 0 'inner'
  1 34 23 0.00000000E+00 3.04305644E+03 0 'inner'
  1 37 16 0.00000000E+00 6.24749983E+03 0 'inner'
  1 35 17 0.00000000E+00 7.28958679E+03 0 'inner'
  1 35 18 0.00000000E+00 4.73428370E+03 0 'inner'
  1 34 18 0.00000000E+00 2.46209785E+03 0 'inner'
  1 36 17 0.00000000E+00 8.89195662E+03 0 'inner'
  1 37 13 0.00000000E+00 1.47717770E+03 0 'inner'
  1 44 17 0.00000000E+00 4.25812582E+03 0 'inner'
  1 46 18 0.00000000E+00 1.02334424E+04 0 'inner'
  1 42 11 0.00000000E+00 7.32178684E+03 0 'inner'
  1 42 10 0.00000000E+00 2.06691400E+03 0 'inner'
  1 41 11 0.00000000E+00 1.32593624E+04 0 'inner'
  1 44 6 0.00000000E+00 2.50000000E+04 0 'peconic'
  1 45 6 0.00000000E+00 2.50000000E+04 0 'peconic'
  1 46 6 0.00000000E+00 2.50000000E+04 0 'peconic'
  1 47 6 0.00000000E+00 2.50000000E+04 0 'peconic'
  1 44 7 0.00000000E+00 2.50000000E+04 0 'peconic'
  1 45 7 0.00000000E+00 2.50000000E+04 0 'peconic'
  1 46 7 0.00000000E+00 2.50000000E+04 0 'peconic'
  1 47 7 0.00000000E+00 2.50000000E+04 0 'peconic'
  1 43 8 0.00000000E+00 1.80105927E+04 0 'peconic'
  1 44 8 0.00000000E+00 2.50000000E+04 0 'peconic'
  1 45 8 0.00000000E+00 2.50000000E+04 0 'peconic'
  1 46 8 0.00000000E+00 2.50000000E+04 0 'peconic'
  1 47 8 0.00000000E+00 2.50000000E+04 0 'peconic'
  1 48 8 0.00000000E+00 2.50000000E+04 0 'peconic'
  1 43 9 0.00000000E+00 1.65966226E+04 0 'peconic'
  1 44 9 0.00000000E+00 2.50000000E+04 0 'peconic'
  1 45 9 0.00000000E+00 2.50000000E+04 0 'peconic'
  1 46 9 0.00000000E+00 2.50000000E+04 0 'peconic'
  1 47 9 0.00000000E+00 2.50000000E+04 0 'peconic'
  1 48 9 0.00000000E+00 2.50000000E+04 0 'peconic'
  1 43 10 0.00000000E+00 1.49386600E+04 0 'peconic'
  1 44 10 0.00000000E+00 2.50000000E+04 0 'peconic'
  1 45 10 0.00000000E+00 2.50000000E+04 0 'peconic'
  1 46 10 0.00000000E+00 2.50000000E+04 0 'peconic'
  1 47 10 0.00000000E+00 2.50000000E+04 0 'peconic'
  1 48 10 0.00000000E+00 2.50000000E+04 0 'peconic'
  1 43 11 0.00000000E+00 2.38820808E+04 0 'peconic'
  1 44 11 0.00000000E+00 2.50000000E+04 0 'peconic'
  1 45 11 0.00000000E+00 2.50000000E+04 0 'peconic'
  1 46 11 0.00000000E+00 2.50000000E+04 0 'peconic'
  1 47 11 0.00000000E+00 2.50000000E+04 0 'peconic'
  1 48 11 0.00000000E+00 2.50000000E+04 0 'peconic'
  1 43 12 0.00000000E+00 2.39694009E+04 0 'peconic'
  1 44 12 0.00000000E+00 2.50000000E+04 0 'peconic'
  1 45 12 0.00000000E+00 2.50000000E+04 0 'peconic'
  1 46 12 0.00000000E+00 2.50000000E+04 0 'peconic'
  1 47 12 0.00000000E+00 2.50000000E+04 0 'peconic'
  1 43 13 0.00000000E+00 2.10266395E+04 0 'peconic'
  1 44 13 0.00000000E+00 2.50000000E+04 0 'peconic'
  1 45 13 0.00000000E+00 2.50000000E+04 0 'peconic'
  1 46 13 0.00000000E+00 2.50000000E+04 0 'peconic'
  1 47 13 0.00000000E+00 2.50000000E+04 0 'peconic'
  1 43 14 0.00000000E+00 1.54090075E+04 0 'peconic'
  1 44 14 0.00000000E+00 2.50000000E+04 0 'peconic'
  1 45 14 0.00000000E+00 2.50000000E+04 0 'peconic'
  1 46 14 0.00000000E+00 2.50000000E+04 0 'peconic'
  1 47 14 0.00000000E+00 2.50000000E+04 0 'peconic'
  1 44 15 0.00000000E+00 1.30548653E+04 0 'peconic'
  1 45 15 0.00000000E+00 2.50000000E+04 0 'peconic'
  1 46 15 0.00000000E+00 2.50000000E+04 0 'peconic'
  1 47 15 0.00000000E+00 2.50000000E+04 0 'peconic'
  1 48 15 0.00000000E+00 2.50000000E+04 0 'peconic'
  1 45 16 0.00000000E+00 2.12289559E+04 0 'peconic'
  1 46 16 0.00000000E+00 2.50000000E+04 0 'peconic'
  1 47 16 0.00000000E+00 2.50000000E+04 0 'peconic'
  1 48 16 0.00000000E+00 2.50000000E+04 0 'peconic'
  1 37 17 0.00000000E+00 1.79244611E+04 0 'peconic'
  1 38 17 0.00000000E+00 2.50000000E+04 0 'peconic'
  1 39 17 0.00000000E+00 1.99999058E+04 0 'peconic'
  1 47 17 0.00000000E+00 2.50000000E+04 0 'peconic'
  1 48 17 0.00000000E+00 2.50000000E+04 0 'peconic'
  1 37 18 0.00000000E+00 2.45696046E+04 0 'peconic'
  1 38 18 0.00000000E+00 2.50000000E+04 0 'peconic'
  1 39 18 0.00000000E+00 2.50000000E+04 0 'peconic'
  1 40 18 0.00000000E+00 1.96047756E+04 0 'peconic'
  1 47 18 0.00000000E+00 2.50000000E+04 0 'peconic'
  1 48 18 0.00000000E+00 2.50000000E+04 0 'peconic'
  1 36 19 0.00000000E+00 2.35212351E+04 0 'peconic'
  1 37 19 0.00000000E+00 2.50000000E+04 0 'peconic'
  1 38 19 0.00000000E+00 2.50000000E+04 0 'peconic'
  1 39 19 0.00000000E+00 2.50000000E+04 0 'peconic'
  1 40 19 0.00000000E+00 2.50000000E+04 0 'peconic'
  1 41 19 0.00000000E+00 2.45907442E+04 0 'peconic'
  1 42 19 0.00000000E+00 2.05906915E+04 0 'peconic'
  1 43 19 0.00000000E+00 1.65023586E+04 0 'peconic'
  1 44 19 0.00000000E+00 1.30562278E+04 0 'peconic'
  1 46 19 0.00000000E+00 1.97109878E+04 0 'peconic'
  1 47 19 0.00000000E+00 2.50000000E+04 0 'peconic'
  1 48 19 0.00000000E+00 2.50000000E+04 0 'peconic'
  1 35 20 0.00000000E+00 2.05256613E+04 0 'peconic'
  1 36 20 0.00000000E+00 2.50000000E+04 0 'peconic'
  1 37 20 0.00000000E+00 2.50000000E+04 0 'peconic'
  1 38 20 0.00000000E+00 2.50000000E+04 0 'peconic'
  1 39 20 0.00000000E+00 2.50000000E+04 0 'peconic'
  1 40 20 0.00000000E+00 2.50000000E+04 0 'peconic'
  1 41 20 0.00000000E+00 2.50000000E+04 0 'peconic'
  1 42 20 0.00000000E+00 2.50000000E+04 0 'peconic'
  1 43 20 0.00000000E+00 2.50000000E+04 0 'peconic'
  1 44 20 0.00000000E+00 2.50000000E+04 0 'peconic'
  1 45 20 0.00000000E+00 2.50000000E+04 0 'peconic'
  1 46 20 0.00000000E+00 2.50000000E+04 0 'peconic'
  1 47 20 0.00000000E+00 2.50000000E+04 0 'peconic'
  1 48 20 0.00000000E+00 2.50000000E+04 0 'peconic'
  1 35 21 0.00000000E+00 2.50000000E+04 0 'peconic'
  1 36 21 0.00000000E+00 2.50000000E+04 0 'peconic'
  1 37 21 0.00000000E+00 2.50000000E+04 0 'peconic'
  1 38 21 0.00000000E+00 2.50000000E+04 0 'peconic'
  1 39 21 0.00000000E+00 2.50000000E+04 0 'peconic'
  1 40 21 0.00000000E+00 2.50000000E+04 0 'peconic'
  1 41 21 0.00000000E+00 2.50000000E+04 0 'peconic'
  1 42 21 0.00000000E+00 2.50000000E+04 0 'peconic'
  1 43 21 0.00000000E+00 2.50000000E+04 0 'peconic'
  1 44 21 0.00000000E+00 2.50000000E+04 0 'peconic'
  1 45 21 0.00000000E+00 2.50000000E+04 0 'peconic'
  1 46 21 0.00000000E+00 2.50000000E+04 0 'peconic'
  1 47 21 0.00000000E+00 2.50000000E+04 0 'peconic'
  1 48 21 0.00000000E+00 2.50000000E+04 0 'peconic'
  1 35 22 0.00000000E+00 2.50000000E+04 0 'peconic'
  1 36 22 0.00000000E+00 2.50000000E+04 0 'peconic'
  1 37 22 0.00000000E+00 2.50000000E+04 0 'peconic'
  1 38 22 0.00000000E+00 2.50000000E+04 0 'peconic'
  1 39 22 0.00000000E+00 2.50000000E+04 0 'peconic'
  1 40 22 0.00000000E+00 2.50000000E+04 0 'peconic'
  1 41 22 0.00000000E+00 2.50000000E+04 0 'peconic'
  1 42 22 0.00000000E+00 2.50000000E+04 0 'peconic'
  1 43 22 0.00000000E+00 2.50000000E+04 0 'peconic'
  1 44 22 0.00000000E+00 2.50000000E+04 0 'peconic'
  1 45 22 0.00000000E+00 2.50000000E+04 0 'peconic'
  1 46 22 0.00000000E+00 2.50000000E+04 0 'peconic'
  1 47 22 0.00000000E+00 2.50000000E+04 0 'peconic'
  1 48 22 0.00000000E+00 2.50000000E+04 0 'peconic'
  1 35 23 0.00000000E+00 2.50000000E+04 0 'peconic'
  1 36 23 0.00000000E+00 2.50000000E+04 0 'peconic'
  1 37 23 0.00000000E+00 2.50000000E+04 0 'peconic'
  1 38 23 0.00000000E+00 2.50000000E+04 0 'peconic'
  1 39 23 0.00000000E+00 2.50000000E+04 0 'peconic'
  1 40 23 0.00000000E+00 2.50000000E+04 0 'peconic'
  1 41 23 0.00000000E+00 2.50000000E+04 0 'peconic'
  1 42 23 0.00000000E+00 2.50000000E+04 0 'peconic'
  1 43 23 0.00000000E+00 2.50000000E+04 0 'peconic'
  1 44 23 0.00000000E+00 2.50000000E+04 0 'peconic'
  1 45 23 0.00000000E+00 2.50000000E+04 0 'peconic'
  1 46 23 0.00000000E+00 2.50000000E+04 0 'peconic'
  1 47 23 0.00000000E+00 2.50000000E+04 0 'peconic'
  1 48 23 0.00000000E+00 2.50000000E+04 0 'peconic'
  1 35 24 0.00000000E+00 2.10291139E+04 0 'peconic'
  1 36 24 0.00000000E+00 2.50000000E+04 0 'peconic'
  1 37 24 0.00000000E+00 2.50000000E+04 0 'peconic'
  1 38 24 0.00000000E+00 2.50000000E+04 0 'peconic'
  1 39 24 0.00000000E+00 2.50000000E+04 0 'peconic'
  1 40 24 0.00000000E+00 2.50000000E+04 0 'peconic'
  1 41 24 0.00000000E+00 2.50000000E+04 0 'peconic'
  1 42 24 0.00000000E+00 2.50000000E+04 0 'peconic'
  1 43 24 0.00000000E+00 2.50000000E+04 0 'peconic'
  1 44 24 0.00000000E+00 2.50000000E+04 0 'peconic'
  1 36 25 0.00000000E+00 2.45127279E+04 0 'peconic'
  1 37 25 0.00000000E+00 2.50000000E+04 0 'peconic'
  1 38 25 0.00000000E+00 2.50000000E+04 0 'peconic'
  1 39 25 0.00000000E+00 2.50000000E+04 0 'peconic'
  1 40 25 0.00000000E+00 2.50000000E+04 0 'peconic'
  1 41 25 0.00000000E+00 2.50000000E+04 0 'peconic'
  1 42 25 0.00000000E+00 2.50000000E+04 0 'peconic'
  1 43 25 0.00000000E+00 2.50000000E+04 0 'peconic'
  1 37 26 0.00000000E+00 2.49361667E+04 0 'peconic'
  1 38 26 0.00000000E+00 2.50000000E+04 0 'peconic'
  1 39 26 0.00000000E+00 2.50000000E+04 0 'peconic'
  1 40 26 0.00000000E+00 2.50000000E+04 0 'peconic'
  1 41 26 0.00000000E+00 2.50000000E+04 0 'peconic'
  1 42 26 0.00000000E+00 2.50000000E+04 0 'peconic'
  1 43 26 0.00000000E+00 2.50000000E+04 0 'peconic'
  1 37 27 0.00000000E+00 2.03166512E+04 0 'peconic'
  1 38 27 0.00000000E+00 2.50000000E+04 0 'peconic'
  1 39 27 0.00000000E+00 2.50000000E+04 0 'peconic'
  1 40 27 0.00000000E+00 2.50000000E+04 0 'peconic'
  1 41 27 0.00000000E+00 2.50000000E+04 0 'peconic'
  1 42 27 0.00000000E+00 2.50000000E+04 0 'peconic'
  1 36 28 0.00000000E+00 1.63563790E+04 0 'peconic'
  1 37 28 0.00000000E+00 2.50000000E+04 0 'peconic'
  1 38 28 0.00000000E+00 2.50000000E+04 0 'peconic'
  1 39 28 0.00000000E+00 2.50000000E+04 0 'peconic'
  1 40 28 0.00000000E+00 2.50000000E+04 0 'peconic'
  1 41 28 0.00000000E+00 2.50000000E+04 0 'peconic'
  1 35 29 0.00000000E+00 2.13169118E+04 0 'peconic'
  1 36 29 0.00000000E+00 2.50000000E+04 0 'peconic'
  1 37 29 0.00000000E+00 2.50000000E+04 0 'peconic'
  1 38 29 0.00000000E+00 2.50000000E+04 0 'peconic'
  1 39 29 0.00000000E+00 2.50000000E+04 0 'peconic'
  1 40 29 0.00000000E+00 2.50000000E+04 0 'peconic'
  1 41 29 0.00000000E+00 2.50000000E+04 0 'peconic'
  1 33 30 0.00000000E+00 2.11045754E+04 0 'peconic'
  1 34 30 0.00000000E+00 2.50000000E+04 0 'peconic'
  1 35 30 0.00000000E+00 2.50000000E+04 0 'peconic'
  1 36 30 0.00000000E+00 2.50000000E+04 0 'peconic'
  1 37 30 0.00000000E+00 2.50000000E+04 0 'peconic'
  1 38 30 0.00000000E+00 2.50000000E+04 0 'peconic'
  1 39 30 0.00000000E+00 2.50000000E+04 0 'peconic'
  1 40 30 0.00000000E+00 2.50000000E+04 0 'peconic'
  1 32 31 0.00000000E+00 1.81507595E+04 0 'peconic'
  1 33 31 0.00000000E+00 2.50000000E+04 0 'peconic'
  1 34 31 0.00000000E+00 2.50000000E+04 0 'peconic'
  1 35 31 0.00000000E+00 2.50000000E+04 0 'peconic'
  1 36 31 0.00000000E+00 2.50000000E+04 0 'peconic'
  1 37 31 0.00000000E+00 2.50000000E+04 0 'peconic'
  1 38 31 0.00000000E+00 2.50000000E+04 0 'peconic'
  1 39 31 0.00000000E+00 2.50000000E+04 0 'peconic'
  1 32 32 0.00000000E+00 2.18428545E+04 0 'peconic'
  1 33 32 0.00000000E+00 2.50000000E+04 0 'peconic'
  1 34 32 0.00000000E+00 2.50000000E+04 0 'peconic'
  1 35 32 0.00000000E+00 2.50000000E+04 0 'peconic'
  1 36 32 0.00000000E+00 2.50000000E+04 0 'peconic'
  1 37 32 0.00000000E+00 2.50000000E+04 0 'peconic'
  1 38 32 0.00000000E+00 2.50000000E+04 0 'peconic'
  1 39 32 0.00000000E+00 2.50000000E+04 0 'peconic'
  1 32 33 0.00000000E+00 2.48988209E+04 0 'peconic'
  1 33 33 0.00000000E+00 2.50000000E+04 0 'peconic'
  1 34 33 0.00000000E+00 2.50000000E+04 0 'peconic'
  1 35 33 0.00000000E+00 2.50000000E+04 0 'peconic'
  1 36 33 0.00000000E+00 2.50000000E+04 0 'peconic'
  1 37 33 0.00000000E+00 2.50000000E+04 0 'peconic'
  1 38 33 0.00000000E+00 2.50000000E+04 0 'peconic'
  1 30 34 0.00000000E+00 1.58216554E+04 0 'peconic'
  1 31 34 0.00000000E+00 2.50000000E+04 0 'peconic'