# File generated by Flopy version 3.8.0 on 09/13/2024 at 10:23:26.
BEGIN OPTIONS
  PRINT_OPTION  summary
  COMPLEXITY  simple
  ATS_OUTER_MAXIMUM_FRACTION       0.33333333
END OPTIONS

BEGIN NONLINEAR
  OUTER_DVCLOSE       0.00100000
  OUTER_MAXIMUM  25
  UNDER_RELAXATION  none
  BACKTRACKING_NUMBER  0
END NONLINEAR

BEGIN LINEAR
  INNER_MAXIMUM  50
  INNER_DVCLOSE  1.00000000E-04
  INNER_RCLOSE       0.10000000
  LINEAR_ACCELERATION  bicgstab
END LINEAR

