# File generated by Flopy version 3.8.0 on 09/13/2024 at 10:23:26.
BEGIN OPTIONS
  LENGTH_UNITS  feet
  XORIGIN  2.43997974E+06
  YORIGIN  3.10542730E+05
  ANGROT      18.00000000
END OPTIONS

BEGIN DIMENSIONS
  NLAY  5
  NROW  48
  NCOL  57
END DIMENSIONS

BEGIN GRIDDATA
  delr
    CONSTANT     500.00000000
  delc
    CONSTANT     500.00000000
  top
    OPEN/CLOSE  'external/greenport_green2010_v3.dis_top.bin'  FACTOR  1.0  (BINARY)
  botm  LAYERED
    OPEN/CLOSE  'external/greenport_green2010_v3.dis_botm_layer1.bin'  FACTOR  1.0  (BINARY)
    OPEN/CLOSE  'external/greenport_green2010_v3.dis_botm_layer2.bin'  FACTOR  1.0  (BINARY)
    OPEN/CLOSE  'external/greenport_green2010_v3.dis_botm_layer3.bin'  FACTOR  1.0  (BINARY)
    OPEN/CLOSE  'external/greenport_green2010_v3.dis_botm_layer4.bin'  FACTOR  1.0  (BINARY)
    OPEN/CLOSE  'external/greenport_green2010_v3.dis_botm_layer5.bin'  FACTOR  1.0  (BINARY)
  idomain  LAYERED
    OPEN/CLOSE  'external/greenport_green2010_v3.dis_idomain_layer1.bin'  FACTOR  1  (BINARY)
    OPEN/CLOSE  'external/greenport_green2010_v3.dis_idomain_layer2.bin'  FACTOR  1  (BINARY)
    OPEN/CLOSE  'external/greenport_green2010_v3.dis_idomain_layer3.bin'  FACTOR  1  (BINARY)
    OPEN/CLOSE  'external/greenport_green2010_v3.dis_idomain_layer4.bin'  FACTOR  1  (BINARY)
    OPEN/CLOSE  'external/greenport_green2010_v3.dis_idomain_layer5.bin'  FACTOR  1  (BINARY)
END GRIDDATA

