# File generated by Flopy version 3.8.0 on 09/13/2024 at 10:23:26.
BEGIN OPTIONS
  MEMORY_PRINT_OPTION  all
END OPTIONS

BEGIN TIMING
  TDIS6  green2010_v3.tdis
END TIMING

BEGIN MODELS
  gwf6  green2010_v3.nam  modflow
END MODELS

BEGIN EXCHANGES
END EXCHANGES

BEGIN SOLUTIONGROUP  1
  MXITER  1
  ims6  green2010_v3.ims  modflow
END SOLUTIONGROUP  1

